MODEL 1
REMARK VINA RESULT:    -9.512      0.000      0.000
REMARK INTER + INTRA:         -16.076
REMARK INTER:                 -14.517
REMARK INTRA:                  -1.559
REMARK UNBOUND:                -1.559
REMARK  Name = 
REMARK  13 active torsions:
REMARK  status: ('A' for Active; 'I' for Inactive)
REMARK    1  A    between atoms: C_2  and  C_3
REMARK    2  A    between atoms: N_5  and  C_6
REMARK    3  A    between atoms: C_10  and  N_11
REMARK    4  A    between atoms: N_14  and  C_15
REMARK    5  A    between atoms: C_15  and  C_16
REMARK    6  A    between atoms: C_16  and  C_17
REMARK    7  A    between atoms: N_24  and  C_25
REMARK    8  A    between atoms: C_28  and  N_29
REMARK    9  A    between atoms: C_32  and  N_33
REMARK   10  A    between atoms: N_33  and  C_34
REMARK   11  A    between atoms: N_33  and  C_35
REMARK   12  A    between atoms: C_39  and  O_40
REMARK   13  A    between atoms: O_40  and  C_41
REMARK                            x       y       z     vdW  Elec       q    Type
REMARK                         _______ _______ _______ _____ _____    ______ ____
ROOT
ATOM      1  N   UNL     1      23.496   1.151  51.860  0.00  0.00    +0.000 N 
ATOM      2  C   UNL     1      24.863   1.377  51.701  0.00  0.00    +0.000 A 
ATOM      3  O   UNL     1      25.323   2.181  50.885  0.00  0.00    +0.000 OA
ATOM      4  N   UNL     1      25.715   0.609  52.496  0.00  0.00    +0.000 N 
ATOM      5  C   UNL     1      25.293  -0.331  53.421  0.00  0.00    +0.000 A 
ATOM      6  O   UNL     1      26.034  -1.068  54.064  0.00  0.00    +0.000 OA
ATOM      7  C   UNL     1      23.863  -0.423  53.639  0.00  0.00    +0.000 A 
ATOM      8  C   UNL     1      23.335  -1.182  54.659  0.00  0.00    +0.000 A 
ATOM      9  N   UNL     1      22.013  -1.277  54.899  0.00  0.00    +0.000 NA
ATOM     10  C   UNL     1      21.207  -0.605  54.071  0.00  0.00    +0.000 A 
ATOM     11  N   UNL     1      19.837  -0.731  54.286  0.00  0.00    +0.000 N 
ATOM     12  N   UNL     1      21.657   0.173  53.068  0.00  0.00    +0.000 NA
ATOM     13  C   UNL     1      22.984   0.271  52.854  0.00  0.00    +0.000 A 
ATOM     14  H   UNL     1      19.541  -0.822  55.221  0.00  0.00    +0.000 HD
ENDROOT
BRANCH   1  19
ATOM     15  C   UNL     1      21.510   3.975  50.392  0.00  0.00    +0.000 A 
ATOM     16  C   UNL     1      20.943   3.334  49.291  0.00  0.00    +0.000 A 
ATOM     17  C   UNL     1      21.148   1.968  49.080  0.00  0.00    +0.000 A 
ATOM     18  C   UNL     1      21.935   1.230  49.963  0.00  0.00    +0.000 A 
ATOM     19  C   UNL     1      22.568   1.863  51.038  0.00  0.00    +0.000 A 
ATOM     20  C   UNL     1      22.358   3.241  51.235  0.00  0.00    +0.000 A 
BRANCH  15  23
ATOM     21  C   UNL     1      21.906   6.423  50.129  0.00  0.00    +0.000 C 
ATOM     22  O   UNL     1      22.755   6.404  49.248  0.00  0.00    +0.000 OA
ATOM     23  N   UNL     1      21.282   5.333  50.710  0.00  0.00    +0.000 N 
ATOM     24  H   UNL     1      20.616   5.522  51.411  0.00  0.00    +0.000 HD
BRANCH  21  26
ATOM     25  C   UNL     1      20.443   8.391  50.024  0.00  0.00    +0.000 C 
ATOM     26  C   UNL     1      21.405   7.718  50.671  0.00  0.00    +0.000 C 
ENDBRANCH  21  26
ENDBRANCH  15  23
ENDBRANCH   1  19
BRANCH  11  27
ATOM     27  C   UNL     1      18.833  -0.740  53.302  0.00  0.00    +0.000 A 
ATOM     28  C   UNL     1      18.835   0.235  52.296  0.00  0.00    +0.000 A 
ATOM     29  C   UNL     1      17.859   0.265  51.297  0.00  0.00    +0.000 A 
ATOM     30  C   UNL     1      16.841  -0.686  51.236  0.00  0.00    +0.000 A 
ATOM     31  C   UNL     1      16.881  -1.696  52.211  0.00  0.00    +0.000 A 
ATOM     32  C   UNL     1      17.850  -1.735  53.237  0.00  0.00    +0.000 A 
BRANCH  30  33
ATOM     33  N   UNL     1      15.857  -0.617  50.271  0.00  0.00    +0.000 N 
ATOM     34  C   UNL     1      15.305  -1.805  49.625  0.00  0.00    +0.000 C 
ATOM     35  C   UNL     1      15.645  -1.767  48.140  0.00  0.00    +0.000 C 
ATOM     36  C   UNL     1      15.194  -0.445  47.476  0.00  0.00    +0.000 C 
ATOM     37  C   UNL     1      15.658   0.783  48.288  0.00  0.00    +0.000 C 
ATOM     38  C   UNL     1      15.331   0.651  49.775  0.00  0.00    +0.000 C 
BRANCH  36  39
ATOM     39  N   UNL     1      15.544  -0.404  46.030  0.00  0.00    +0.000 N 
ATOM     40  C   UNL     1      15.585  -1.734  45.419  0.00  0.00    +0.000 C 
ATOM     41  C   UNL     1      14.700   0.482  45.228  0.00  0.00    +0.000 C 
ATOM     42  H   UNL     1      16.484  -0.008  46.023  0.00  0.00    +0.000 HD
ENDBRANCH  36  39
ENDBRANCH  30  33
BRANCH  32  43
ATOM     43  O   UNL     1      17.728  -2.821  54.069  0.00  0.00    +0.000 OA
ATOM     44  C   UNL     1      17.023  -3.947  53.559  0.00  0.00    +0.000 C 
ENDBRANCH  32  43
ENDBRANCH  11  27
BRANCH   4  45
ATOM     45  C   UNL     1      27.153   0.812  52.342  0.00  0.00    +0.000 C 
BRANCH  45  46
ATOM     46  C   UNL     1      27.717   1.817  53.354  0.00  0.00    +0.000 C 
ATOM     47  C   UNL     1      28.881   1.269  54.169  0.00  0.00    +0.000 C 
ENDBRANCH  45  46
ENDBRANCH   4  45
TORSDOF 9
ENDMDL
MODEL 2
REMARK VINA RESULT:    -9.402      2.748      3.718
REMARK INTER + INTRA:         -15.908
REMARK INTER:                 -14.266
REMARK INTRA:                  -1.642
REMARK UNBOUND:                -1.559
REMARK  Name = 
REMARK  13 active torsions:
REMARK  status: ('A' for Active; 'I' for Inactive)
REMARK    1  A    between atoms: C_2  and  C_3
REMARK    2  A    between atoms: N_5  and  C_6
REMARK    3  A    between atoms: C_10  and  N_11
REMARK    4  A    between atoms: N_14  and  C_15
REMARK    5  A    between atoms: C_15  and  C_16
REMARK    6  A    between atoms: C_16  and  C_17
REMARK    7  A    between atoms: N_24  and  C_25
REMARK    8  A    between atoms: C_28  and  N_29
REMARK    9  A    between atoms: C_32  and  N_33
REMARK   10  A    between atoms: N_33  and  C_34
REMARK   11  A    between atoms: N_33  and  C_35
REMARK   12  A    between atoms: C_39  and  O_40
REMARK   13  A    between atoms: O_40  and  C_41
REMARK                            x       y       z     vdW  Elec       q    Type
REMARK                         _______ _______ _______ _____ _____    ______ ____
ROOT
ATOM      1  N   UNL     1      24.818   1.484  51.826  0.00  0.00    +0.000 N 
ATOM      2  C   UNL     1      26.194   1.263  51.894  0.00  0.00    +0.000 A 
ATOM      3  O   UNL     1      27.017   1.935  51.265  0.00  0.00    +0.000 OA
ATOM      4  N   UNL     1      26.611   0.199  52.694  0.00  0.00    +0.000 N 
ATOM      5  C   UNL     1      25.763  -0.622  53.418  0.00  0.00    +0.000 A 
ATOM      6  O   UNL     1      26.114  -1.608  54.057  0.00  0.00    +0.000 OA
ATOM      7  C   UNL     1      24.360  -0.258  53.416  0.00  0.00    +0.000 A 
ATOM      8  C   UNL     1      23.451  -0.882  54.242  0.00  0.00    +0.000 A 
ATOM      9  N   UNL     1      22.145  -0.558  54.277  0.00  0.00    +0.000 NA
ATOM     10  C   UNL     1      21.745   0.404  53.438  0.00  0.00    +0.000 A 
ATOM     11  N   UNL     1      20.388   0.715  53.438  0.00  0.00    +0.000 N 
ATOM     12  N   UNL     1      22.583   1.069  52.621  0.00  0.00    +0.000 NA
ATOM     13  C   UNL     1      23.893   0.745  52.612  0.00  0.00    +0.000 A 
ATOM     14  H   UNL     1      19.918   0.652  54.301  0.00  0.00    +0.000 HD
ENDROOT
BRANCH   1  19
ATOM     15  C   UNL     1      24.356   4.866  50.267  0.00  0.00    +0.000 A 
ATOM     16  C   UNL     1      23.538   4.532  49.188  0.00  0.00    +0.000 A 
ATOM     17  C   UNL     1      23.079   3.222  49.021  0.00  0.00    +0.000 A 
ATOM     18  C   UNL     1      23.445   2.228  49.927  0.00  0.00    +0.000 A 
ATOM     19  C   UNL     1      24.317   2.523  50.981  0.00  0.00    +0.000 A 
ATOM     20  C   UNL     1      24.776   3.845  51.133  0.00  0.00    +0.000 A 
BRANCH  15  23
ATOM     21  C   UNL     1      25.793   6.865  49.873  0.00  0.00    +0.000 C 
ATOM     22  O   UNL     1      26.470   6.454  48.940  0.00  0.00    +0.000 OA
ATOM     23  N   UNL     1      24.791   6.182  50.541  0.00  0.00    +0.000 N 
ATOM     24  H   UNL     1      24.340   6.658  51.275  0.00  0.00    +0.000 HD
BRANCH  21  26
ATOM     25  C   UNL     1      27.118   8.912  50.155  0.00  0.00    +0.000 C 
ATOM     26  C   UNL     1      25.976   8.251  50.391  0.00  0.00    +0.000 C 
ENDBRANCH  21  26
ENDBRANCH  15  23
ENDBRANCH   1  19
BRANCH  11  27
ATOM     27  C   UNL     1      19.622   1.112  52.328  0.00  0.00    +0.000 A 
ATOM     28  C   UNL     1      18.928   0.151  51.581  0.00  0.00    +0.000 A 
ATOM     29  C   UNL     1      18.153   0.498  50.472  0.00  0.00    +0.000 A 
ATOM     30  C   UNL     1      18.013   1.823  50.060  0.00  0.00    +0.000 A 
ATOM     31  C   UNL     1      18.662   2.787  50.849  0.00  0.00    +0.000 A 
ATOM     32  C   UNL     1      19.461   2.454  51.964  0.00  0.00    +0.000 A 
BRANCH  30  33
ATOM     33  N   UNL     1      17.282   2.146  48.934  0.00  0.00    +0.000 N 
ATOM     34  C   UNL     1      17.757   3.104  47.939  0.00  0.00    +0.000 C 
ATOM     35  C   UNL     1      16.816   4.304  47.916  0.00  0.00    +0.000 C 
ATOM     36  C   UNL     1      15.344   3.881  47.705  0.00  0.00    +0.000 C 
ATOM     37  C   UNL     1      14.937   2.746  48.669  0.00  0.00    +0.000 C 
ATOM     38  C   UNL     1      15.952   1.604  48.678  0.00  0.00    +0.000 C 
BRANCH  36  39
ATOM     39  N   UNL     1      14.427   5.054  47.701  0.00  0.00    +0.000 N 
ATOM     40  C   UNL     1      13.665   5.181  48.945  0.00  0.00    +0.000 C 
ATOM     41  C   UNL     1      15.076   6.328  47.387  0.00  0.00    +0.000 C 
ATOM     42  H   UNL     1      13.782   4.851  46.937  0.00  0.00    +0.000 HD
ENDBRANCH  36  39
ENDBRANCH  30  33
BRANCH  32  43
ATOM     43  O   UNL     1      19.981   3.547  52.614  0.00  0.00    +0.000 OA
ATOM     44  C   UNL     1      21.010   4.266  51.945  0.00  0.00    +0.000 C 
ENDBRANCH  32  43
ENDBRANCH  11  27
BRANCH   4  45
ATOM     45  C   UNL     1      28.046  -0.067  52.774  0.00  0.00    +0.000 C 
BRANCH  45  46
ATOM     46  C   UNL     1      28.660   0.410  54.096  0.00  0.00    +0.000 C 
ATOM     47  C   UNL     1      29.049   1.882  54.088  0.00  0.00    +0.000 C 
ENDBRANCH  45  46
ENDBRANCH   4  45
TORSDOF 9
ENDMDL
MODEL 3
REMARK VINA RESULT:    -9.248      2.516      3.390
REMARK INTER + INTRA:         -15.674
REMARK INTER:                 -13.106
REMARK INTRA:                  -2.567
REMARK UNBOUND:                -1.559
REMARK  Name = 
REMARK  13 active torsions:
REMARK  status: ('A' for Active; 'I' for Inactive)
REMARK    1  A    between atoms: C_2  and  C_3
REMARK    2  A    between atoms: N_5  and  C_6
REMARK    3  A    between atoms: C_10  and  N_11
REMARK    4  A    between atoms: N_14  and  C_15
REMARK    5  A    between atoms: C_15  and  C_16
REMARK    6  A    between atoms: C_16  and  C_17
REMARK    7  A    between atoms: N_24  and  C_25
REMARK    8  A    between atoms: C_28  and  N_29
REMARK    9  A    between atoms: C_32  and  N_33
REMARK   10  A    between atoms: N_33  and  C_34
REMARK   11  A    between atoms: N_33  and  C_35
REMARK   12  A    between atoms: C_39  and  O_40
REMARK   13  A    between atoms: O_40  and  C_41
REMARK                            x       y       z     vdW  Elec       q    Type
REMARK                         _______ _______ _______ _____ _____    ______ ____
ROOT
ATOM      1  N   UNL     1      24.868   1.827  52.227  0.00  0.00    +0.000 N 
ATOM      2  C   UNL     1      26.254   1.669  52.223  0.00  0.00    +0.000 A 
ATOM      3  O   UNL     1      27.024   2.479  51.699  0.00  0.00    +0.000 OA
ATOM      4  N   UNL     1      26.747   0.508  52.820  0.00  0.00    +0.000 N 
ATOM      5  C   UNL     1      25.961  -0.467  53.412  0.00  0.00    +0.000 A 
ATOM      6  O   UNL     1      26.379  -1.528  53.866  0.00  0.00    +0.000 OA
ATOM      7  C   UNL     1      24.543  -0.181  53.507  0.00  0.00    +0.000 A 
ATOM      8  C   UNL     1      23.692  -0.982  54.235  0.00  0.00    +0.000 A 
ATOM      9  N   UNL     1      22.374  -0.737  54.357  0.00  0.00    +0.000 NA
ATOM     10  C   UNL     1      21.903   0.331  53.705  0.00  0.00    +0.000 A 
ATOM     11  N   UNL     1      20.534   0.568  53.790  0.00  0.00    +0.000 N 
ATOM     12  N   UNL     1      22.682   1.168  52.993  0.00  0.00    +0.000 NA
ATOM     13  C   UNL     1      24.004   0.918  52.898  0.00  0.00    +0.000 A 
ATOM     14  H   UNL     1      20.095   0.335  54.640  0.00  0.00    +0.000 HD
ENDROOT
BRANCH   1  19
ATOM     15  C   UNL     1      23.285   3.985  49.598  0.00  0.00    +0.000 A 
ATOM     16  C   UNL     1      22.942   5.099  50.365  0.00  0.00    +0.000 A 
ATOM     17  C   UNL     1      23.298   5.171  51.714  0.00  0.00    +0.000 A 
ATOM     18  C   UNL     1      23.992   4.122  52.316  0.00  0.00    +0.000 A 
ATOM     19  C   UNL     1      24.292   2.967  51.585  0.00  0.00    +0.000 A 
ATOM     20  C   UNL     1      23.921   2.905  50.229  0.00  0.00    +0.000 A 
BRANCH  15  23
ATOM     21  C   UNL     1      21.794   3.644  47.629  0.00  0.00    +0.000 C 
ATOM     22  O   UNL     1      20.724   3.489  48.202  0.00  0.00    +0.000 OA
ATOM     23  N   UNL     1      23.027   3.880  48.213  0.00  0.00    +0.000 N 
ATOM     24  H   UNL     1      23.795   3.982  47.606  0.00  0.00    +0.000 HD
BRANCH  21  26
ATOM     25  C   UNL     1      21.993   4.777  45.461  0.00  0.00    +0.000 C 
ATOM     26  C   UNL     1      21.867   3.628  46.140  0.00  0.00    +0.000 C 
ENDBRANCH  21  26
ENDBRANCH  15  23
ENDBRANCH   1  19
BRANCH  11  27
ATOM     27  C   UNL     1      19.714   1.107  52.783  0.00  0.00    +0.000 A 
ATOM     28  C   UNL     1      19.879   2.442  52.390  0.00  0.00    +0.000 A 
ATOM     29  C   UNL     1      19.089   3.020  51.394  0.00  0.00    +0.000 A 
ATOM     30  C   UNL     1      18.105   2.294  50.723  0.00  0.00    +0.000 A 
ATOM     31  C   UNL     1      17.986   0.941  51.080  0.00  0.00    +0.000 A 
ATOM     32  C   UNL     1      18.764   0.343  52.094  0.00  0.00    +0.000 A 
BRANCH  30  33
ATOM     33  N   UNL     1      17.300   2.891  49.775  0.00  0.00    +0.000 N 
ATOM     34  C   UNL     1      16.762   2.162  48.630  0.00  0.00    +0.000 C 
ATOM     35  C   UNL     1      17.341   2.750  47.348  0.00  0.00    +0.000 C 
ATOM     36  C   UNL     1      17.118   4.277  47.260  0.00  0.00    +0.000 C 
ATOM     37  C   UNL     1      17.546   4.989  48.561  0.00  0.00    +0.000 C 
ATOM     38  C   UNL     1      16.971   4.313  49.805  0.00  0.00    +0.000 C 
BRANCH  36  39
ATOM     39  N   UNL     1      17.701   4.850  46.016  0.00  0.00    +0.000 N 
ATOM     40  C   UNL     1      18.625   5.955  46.280  0.00  0.00    +0.000 C 
ATOM     41  C   UNL     1      18.342   3.868  45.140  0.00  0.00    +0.000 C 
ATOM     42  H   UNL     1      16.889   5.211  45.515  0.00  0.00    +0.000 HD
ENDBRANCH  36  39
ENDBRANCH  30  33
BRANCH  32  43
ATOM     43  O   UNL     1      18.511  -0.996  52.265  0.00  0.00    +0.000 OA
ATOM     44  C   UNL     1      17.427  -1.343  53.119  0.00  0.00    +0.000 C 
ENDBRANCH  32  43
ENDBRANCH  11  27
BRANCH   4  45
ATOM     45  C   UNL     1      28.194   0.306  52.819  0.00  0.00    +0.000 C 
BRANCH  45  46
ATOM     46  C   UNL     1      28.834   0.631  54.174  0.00  0.00    +0.000 C 
ATOM     47  C   UNL     1      29.345   2.062  54.276  0.00  0.00    +0.000 C 
ENDBRANCH  45  46
ENDBRANCH   4  45
TORSDOF 9
ENDMDL
MODEL 4
REMARK VINA RESULT:    -9.152      2.363      3.385
REMARK INTER + INTRA:         -15.526
REMARK INTER:                 -13.449
REMARK INTRA:                  -2.077
REMARK UNBOUND:                -1.559
REMARK  Name = 
REMARK  13 active torsions:
REMARK  status: ('A' for Active; 'I' for Inactive)
REMARK    1  A    between atoms: C_2  and  C_3
REMARK    2  A    between atoms: N_5  and  C_6
REMARK    3  A    between atoms: C_10  and  N_11
REMARK    4  A    between atoms: N_14  and  C_15
REMARK    5  A    between atoms: C_15  and  C_16
REMARK    6  A    between atoms: C_16  and  C_17
REMARK    7  A    between atoms: N_24  and  C_25
REMARK    8  A    between atoms: C_28  and  N_29
REMARK    9  A    between atoms: C_32  and  N_33
REMARK   10  A    between atoms: N_33  and  C_34
REMARK   11  A    between atoms: N_33  and  C_35
REMARK   12  A    between atoms: C_39  and  O_40
REMARK   13  A    between atoms: O_40  and  C_41
REMARK                            x       y       z     vdW  Elec       q    Type
REMARK                         _______ _______ _______ _____ _____    ______ ____
ROOT
ATOM      1  N   UNL     1      24.726   1.778  52.343  0.00  0.00    +0.000 N 
ATOM      2  C   UNL     1      26.117   1.675  52.355  0.00  0.00    +0.000 A 
ATOM      3  O   UNL     1      26.861   2.528  51.863  0.00  0.00    +0.000 OA
ATOM      4  N   UNL     1      26.647   0.518  52.928  0.00  0.00    +0.000 N 
ATOM      5  C   UNL     1      25.893  -0.502  53.483  0.00  0.00    +0.000 A 
ATOM      6  O   UNL     1      26.346  -1.557  53.914  0.00  0.00    +0.000 OA
ATOM      7  C   UNL     1      24.464  -0.274  53.565  0.00  0.00    +0.000 A 
ATOM      8  C   UNL     1      23.636  -1.127  54.259  0.00  0.00    +0.000 A 
ATOM      9  N   UNL     1      22.307  -0.938  54.368  0.00  0.00    +0.000 NA
ATOM     10  C   UNL     1      21.803   0.128  53.738  0.00  0.00    +0.000 A 
ATOM     11  N   UNL     1      20.424   0.309  53.810  0.00  0.00    +0.000 N 
ATOM     12  N   UNL     1      22.558   1.014  53.060  0.00  0.00    +0.000 NA
ATOM     13  C   UNL     1      23.890   0.818  52.977  0.00  0.00    +0.000 A 
ATOM     14  H   UNL     1      19.984   0.036  54.647  0.00  0.00    +0.000 HD
ENDROOT
BRANCH   1  19
ATOM     15  C   UNL     1      23.115   3.950  49.742  0.00  0.00    +0.000 A 
ATOM     16  C   UNL     1      22.696   5.018  50.536  0.00  0.00    +0.000 A 
ATOM     17  C   UNL     1      23.011   5.060  51.896  0.00  0.00    +0.000 A 
ATOM     18  C   UNL     1      23.738   4.025  52.483  0.00  0.00    +0.000 A 
ATOM     19  C   UNL     1      24.113   2.911  51.723  0.00  0.00    +0.000 A 
ATOM     20  C   UNL     1      23.784   2.880  50.355  0.00  0.00    +0.000 A 
BRANCH  15  23
ATOM     21  C   UNL     1      21.895   3.175  47.710  0.00  0.00    +0.000 C 
ATOM     22  O   UNL     1      21.023   2.496  48.237  0.00  0.00    +0.000 OA
ATOM     23  N   UNL     1      22.901   3.881  48.347  0.00  0.00    +0.000 N 
ATOM     24  H   UNL     1      23.526   4.381  47.774  0.00  0.00    +0.000 HD
BRANCH  21  26
ATOM     25  C   UNL     1      21.957   4.575  45.695  0.00  0.00    +0.000 C 
ATOM     26  C   UNL     1      21.933   3.346  46.230  0.00  0.00    +0.000 C 
ENDBRANCH  21  26
ENDBRANCH  15  23
ENDBRANCH   1  19
BRANCH  11  27
ATOM     27  C   UNL     1      19.597   0.842  52.806  0.00  0.00    +0.000 A 
ATOM     28  C   UNL     1      19.810   2.149  52.349  0.00  0.00    +0.000 A 
ATOM     29  C   UNL     1      19.015   2.721  51.354  0.00  0.00    +0.000 A 
ATOM     30  C   UNL     1      17.977   2.013  50.746  0.00  0.00    +0.000 A 
ATOM     31  C   UNL     1      17.808   0.684  51.166  0.00  0.00    +0.000 A 
ATOM     32  C   UNL     1      18.592   0.094  52.181  0.00  0.00    +0.000 A 
BRANCH  30  33
ATOM     33  N   UNL     1      17.169   2.607  49.797  0.00  0.00    +0.000 N 
ATOM     34  C   UNL     1      16.994   4.054  49.710  0.00  0.00    +0.000 C 
ATOM     35  C   UNL     1      15.538   4.397  50.003  0.00  0.00    +0.000 C 
ATOM     36  C   UNL     1      14.563   3.607  49.100  0.00  0.00    +0.000 C 
ATOM     37  C   UNL     1      14.894   2.099  49.092  0.00  0.00    +0.000 C 
ATOM     38  C   UNL     1      16.379   1.834  48.844  0.00  0.00    +0.000 C 
BRANCH  36  39
ATOM     39  N   UNL     1      13.142   3.931  49.402  0.00  0.00    +0.000 N 
ATOM     40  C   UNL     1      12.592   3.112  50.484  0.00  0.00    +0.000 C 
ATOM     41  C   UNL     1      12.890   5.346  49.678  0.00  0.00    +0.000 C 
ATOM     42  H   UNL     1      12.655   3.704  48.535  0.00  0.00    +0.000 HD
ENDBRANCH  36  39
ENDBRANCH  30  33
BRANCH  32  43
ATOM     43  O   UNL     1      18.284  -1.223  52.419  0.00  0.00    +0.000 OA
ATOM     44  C   UNL     1      16.961  -1.506  52.859  0.00  0.00    +0.000 C 
ENDBRANCH  32  43
ENDBRANCH  11  27
BRANCH   4  45
ATOM     45  C   UNL     1      28.101   0.374  52.942  0.00  0.00    +0.000 C 
BRANCH  45  46
ATOM     46  C   UNL     1      28.717   0.752  54.295  0.00  0.00    +0.000 C 
ATOM     47  C   UNL     1      29.361   2.131  54.304  0.00  0.00    +0.000 C 
ENDBRANCH  45  46
ENDBRANCH   4  45
TORSDOF 9
ENDMDL
MODEL 5
REMARK VINA RESULT:    -8.715      4.187      8.798
REMARK INTER + INTRA:         -14.860
REMARK INTER:                 -12.957
REMARK INTRA:                  -1.903
REMARK UNBOUND:                -1.559
REMARK  Name = 
REMARK  13 active torsions:
REMARK  status: ('A' for Active; 'I' for Inactive)
REMARK    1  A    between atoms: C_2  and  C_3
REMARK    2  A    between atoms: N_5  and  C_6
REMARK    3  A    between atoms: C_10  and  N_11
REMARK    4  A    between atoms: N_14  and  C_15
REMARK    5  A    between atoms: C_15  and  C_16
REMARK    6  A    between atoms: C_16  and  C_17
REMARK    7  A    between atoms: N_24  and  C_25
REMARK    8  A    between atoms: C_28  and  N_29
REMARK    9  A    between atoms: C_32  and  N_33
REMARK   10  A    between atoms: N_33  and  C_34
REMARK   11  A    between atoms: N_33  and  C_35
REMARK   12  A    between atoms: C_39  and  O_40
REMARK   13  A    between atoms: O_40  and  C_41
REMARK                            x       y       z     vdW  Elec       q    Type
REMARK                         _______ _______ _______ _____ _____    ______ ____
ROOT
ATOM      1  N   UNL     1      23.102   1.820  50.707  0.00  0.00    +0.000 N 
ATOM      2  C   UNL     1      22.407   0.836  51.410  0.00  0.00    +0.000 A 
ATOM      3  O   UNL     1      21.251   0.501  51.137  0.00  0.00    +0.000 OA
ATOM      4  N   UNL     1      23.076   0.256  52.488  0.00  0.00    +0.000 N 
ATOM      5  C   UNL     1      24.362   0.582  52.884  0.00  0.00    +0.000 A 
ATOM      6  O   UNL     1      24.927   0.137  53.878  0.00  0.00    +0.000 OA
ATOM      7  C   UNL     1      25.081   1.510  52.033  0.00  0.00    +0.000 A 
ATOM      8  C   UNL     1      26.422   1.767  52.216  0.00  0.00    +0.000 A 
ATOM      9  N   UNL     1      27.123   2.610  51.435  0.00  0.00    +0.000 NA
ATOM     10  C   UNL     1      26.444   3.226  50.461  0.00  0.00    +0.000 A 
ATOM     11  N   UNL     1      27.152   4.132  49.676  0.00  0.00    +0.000 N 
ATOM     12  N   UNL     1      25.139   3.005  50.214  0.00  0.00    +0.000 NA
ATOM     13  C   UNL     1      24.456   2.142  50.994  0.00  0.00    +0.000 A 
ATOM     14  H   UNL     1      28.097   3.920  49.496  0.00  0.00    +0.000 HD
ENDROOT
BRANCH   1  19
ATOM     15  C   UNL     1      21.503   4.547  48.684  0.00  0.00    +0.000 A 
ATOM     16  C   UNL     1      21.409   3.913  47.445  0.00  0.00    +0.000 A 
ATOM     17  C   UNL     1      21.793   2.578  47.298  0.00  0.00    +0.000 A 
ATOM     18  C   UNL     1      22.290   1.864  48.387  0.00  0.00    +0.000 A 
ATOM     19  C   UNL     1      22.456   2.495  49.625  0.00  0.00    +0.000 A 
ATOM     20  C   UNL     1      22.070   3.843  49.757  0.00  0.00    +0.000 A 
BRANCH  15  23
ATOM     21  C   UNL     1      19.827   6.233  49.436  0.00  0.00    +0.000 C 
ATOM     22  O   UNL     1      18.915   5.487  49.767  0.00  0.00    +0.000 OA
ATOM     23  N   UNL     1      21.061   5.867  48.924  0.00  0.00    +0.000 N 
ATOM     24  H   UNL     1      21.687   6.594  48.707  0.00  0.00    +0.000 HD
BRANCH  21  26
ATOM     25  C   UNL     1      20.740   8.432  50.033  0.00  0.00    +0.000 C 
ATOM     26  C   UNL     1      19.698   7.709  49.598  0.00  0.00    +0.000 C 
ENDBRANCH  21  26
ENDBRANCH  15  23
ENDBRANCH   1  19
BRANCH  11  27
ATOM     27  C   UNL     1      26.652   5.319  49.113  0.00  0.00    +0.000 A 
ATOM     28  C   UNL     1      25.296   5.641  49.254  0.00  0.00    +0.000 A 
ATOM     29  C   UNL     1      24.755   6.808  48.712  0.00  0.00    +0.000 A 
ATOM     30  C   UNL     1      25.541   7.729  48.019  0.00  0.00    +0.000 A 
ATOM     31  C   UNL     1      26.911   7.430  47.933  0.00  0.00    +0.000 A 
ATOM     32  C   UNL     1      27.473   6.248  48.461  0.00  0.00    +0.000 A 
BRANCH  30  33
ATOM     33  N   UNL     1      24.984   8.856  47.449  0.00  0.00    +0.000 N 
ATOM     34  C   UNL     1      23.760   9.469  47.956  0.00  0.00    +0.000 C 
ATOM     35  C   UNL     1      22.675   9.371  46.890  0.00  0.00    +0.000 C 
ATOM     36  C   UNL     1      23.138   9.959  45.537  0.00  0.00    +0.000 C 
ATOM     37  C   UNL     1      24.519   9.407  45.122  0.00  0.00    +0.000 C 
ATOM     38  C   UNL     1      25.539   9.490  46.257  0.00  0.00    +0.000 C 
BRANCH  36  39
ATOM     39  N   UNL     1      22.083   9.844  44.494  0.00  0.00    +0.000 N 
ATOM     40  C   UNL     1      22.301   8.713  43.589  0.00  0.00    +0.000 C 
ATOM     41  C   UNL     1      20.717   9.800  45.017  0.00  0.00    +0.000 C 
ATOM     42  H   UNL     1      22.173  10.712  43.966  0.00  0.00    +0.000 HD
ENDBRANCH  36  39
ENDBRANCH  30  33
BRANCH  32  43
ATOM     43  O   UNL     1      28.834   6.164  48.296  0.00  0.00    +0.000 OA
ATOM     44  C   UNL     1      29.546   7.391  48.185  0.00  0.00    +0.000 C 
ENDBRANCH  32  43
ENDBRANCH  11  27
BRANCH   4  45
ATOM     45  C   UNL     1      22.369  -0.768  53.254  0.00  0.00    +0.000 C 
BRANCH  45  46
ATOM     46  C   UNL     1      21.809  -0.232  54.577  0.00  0.00    +0.000 C 
ATOM     47  C   UNL     1      20.432   0.402  54.440  0.00  0.00    +0.000 C 
ENDBRANCH  45  46
ENDBRANCH   4  45
TORSDOF 9
ENDMDL
MODEL 6
REMARK VINA RESULT:    -8.711      3.478      8.843
REMARK INTER + INTRA:         -14.853
REMARK INTER:                 -13.080
REMARK INTRA:                  -1.774
REMARK UNBOUND:                -1.559
REMARK  Name = 
REMARK  13 active torsions:
REMARK  status: ('A' for Active; 'I' for Inactive)
REMARK    1  A    between atoms: C_2  and  C_3
REMARK    2  A    between atoms: N_5  and  C_6
REMARK    3  A    between atoms: C_10  and  N_11
REMARK    4  A    between atoms: N_14  and  C_15
REMARK    5  A    between atoms: C_15  and  C_16
REMARK    6  A    between atoms: C_16  and  C_17
REMARK    7  A    between atoms: N_24  and  C_25
REMARK    8  A    between atoms: C_28  and  N_29
REMARK    9  A    between atoms: C_32  and  N_33
REMARK   10  A    between atoms: N_33  and  C_34
REMARK   11  A    between atoms: N_33  and  C_35
REMARK   12  A    between atoms: C_39  and  O_40
REMARK   13  A    between atoms: O_40  and  C_41
REMARK                            x       y       z     vdW  Elec       q    Type
REMARK                         _______ _______ _______ _____ _____    ______ ____
ROOT
ATOM      1  N   UNL     1      20.661   0.941  51.704  0.00  0.00    +0.000 N 
ATOM      2  C   UNL     1      19.552   0.257  52.202  0.00  0.00    +0.000 A 
ATOM      3  O   UNL     1      18.419   0.368  51.724  0.00  0.00    +0.000 OA
ATOM      4  N   UNL     1      19.774  -0.553  53.317  0.00  0.00    +0.000 N 
ATOM      5  C   UNL     1      21.002  -0.723  53.934  0.00  0.00    +0.000 A 
ATOM      6  O   UNL     1      21.190  -1.367  54.962  0.00  0.00    +0.000 OA
ATOM      7  C   UNL     1      22.138  -0.096  53.290  0.00  0.00    +0.000 A 
ATOM      8  C   UNL     1      23.429  -0.344  53.700  0.00  0.00    +0.000 A 
ATOM      9  N   UNL     1      24.508   0.209  53.114  0.00  0.00    +0.000 NA
ATOM     10  C   UNL     1      24.271   1.052  52.104  0.00  0.00    +0.000 A 
ATOM     11  N   UNL     1      25.378   1.662  51.520  0.00  0.00    +0.000 N 
ATOM     12  N   UNL     1      23.037   1.323  51.639  0.00  0.00    +0.000 NA
ATOM     13  C   UNL     1      21.969   0.745  52.225  0.00  0.00    +0.000 A 
ATOM     14  H   UNL     1      26.205   1.128  51.472  0.00  0.00    +0.000 HD
ENDROOT
BRANCH   1  19
ATOM     15  C   UNL     1      20.329   4.117  49.734  0.00  0.00    +0.000 A 
ATOM     16  C   UNL     1      20.411   3.614  48.436  0.00  0.00    +0.000 A 
ATOM     17  C   UNL     1      20.495   2.237  48.211  0.00  0.00    +0.000 A 
ATOM     18  C   UNL     1      20.511   1.348  49.284  0.00  0.00    +0.000 A 
ATOM     19  C   UNL     1      20.494   1.831  50.598  0.00  0.00    +0.000 A 
ATOM     20  C   UNL     1      20.416   3.221  50.809  0.00  0.00    +0.000 A 
BRANCH  15  23
ATOM     21  C   UNL     1      21.065   6.500  49.750  0.00  0.00    +0.000 C 
ATOM     22  O   UNL     1      22.152   6.385  49.199  0.00  0.00    +0.000 OA
ATOM     23  N   UNL     1      20.163   5.488  50.032  0.00  0.00    +0.000 N 
ATOM     24  H   UNL     1      19.327   5.750  50.483  0.00  0.00    +0.000 HD
BRANCH  21  26
ATOM     25  C   UNL     1      19.736   8.526  49.364  0.00  0.00    +0.000 C 
ATOM     26  C   UNL     1      20.562   7.840  50.166  0.00  0.00    +0.000 C 
ENDBRANCH  21  26
ENDBRANCH  15  23
ENDBRANCH   1  19
BRANCH  11  27
ATOM     27  C   UNL     1      25.435   2.963  50.992  0.00  0.00    +0.000 A 
ATOM     28  C   UNL     1      26.079   3.191  49.768  0.00  0.00    +0.000 A 
ATOM     29  C   UNL     1      26.160   4.465  49.204  0.00  0.00    +0.000 A 
ATOM     30  C   UNL     1      25.586   5.578  49.819  0.00  0.00    +0.000 A 
ATOM     31  C   UNL     1      24.891   5.333  51.014  0.00  0.00    +0.000 A 
ATOM     32  C   UNL     1      24.811   4.055  51.607  0.00  0.00    +0.000 A 
BRANCH  30  33
ATOM     33  N   UNL     1      25.714   6.840  49.273  0.00  0.00    +0.000 N 
ATOM     34  C   UNL     1      25.929   7.060  47.845  0.00  0.00    +0.000 C 
ATOM     35  C   UNL     1      27.294   7.705  47.641  0.00  0.00    +0.000 C 
ATOM     36  C   UNL     1      27.461   8.988  48.489  0.00  0.00    +0.000 C 
ATOM     37  C   UNL     1      27.061   8.749  49.961  0.00  0.00    +0.000 C 
ATOM     38  C   UNL     1      25.706   8.052  50.086  0.00  0.00    +0.000 C 
BRANCH  36  39
ATOM     39  N   UNL     1      28.802   9.605  48.301  0.00  0.00    +0.000 N 
ATOM     40  C   UNL     1      29.777   9.156  49.297  0.00  0.00    +0.000 C 
ATOM     41  C   UNL     1      29.360   9.442  46.957  0.00  0.00    +0.000 C 
ATOM     42  H   UNL     1      28.628  10.601  48.433  0.00  0.00    +0.000 HD
ENDBRANCH  36  39
ENDBRANCH  30  33
BRANCH  32  43
ATOM     43  O   UNL     1      24.060   4.027  52.757  0.00  0.00    +0.000 OA
ATOM     44  C   UNL     1      22.871   4.809  52.769  0.00  0.00    +0.000 C 
ENDBRANCH  32  43
ENDBRANCH  11  27
BRANCH   4  45
ATOM     45  C   UNL     1      18.629  -1.272  53.871  0.00  0.00    +0.000 C 
BRANCH  45  46
ATOM     46  C   UNL     1      18.618  -2.754  53.476  0.00  0.00    +0.000 C 
ATOM     47  C   UNL     1      17.232  -3.382  53.514  0.00  0.00    +0.000 C 
ENDBRANCH  45  46
ENDBRANCH   4  45
TORSDOF 9
ENDMDL
MODEL 7
REMARK VINA RESULT:    -8.438      3.845      9.893
REMARK INTER + INTRA:         -14.437
REMARK INTER:                 -12.763
REMARK INTRA:                  -1.673
REMARK UNBOUND:                -1.559
REMARK  Name = 
REMARK  13 active torsions:
REMARK  status: ('A' for Active; 'I' for Inactive)
REMARK    1  A    between atoms: C_2  and  C_3
REMARK    2  A    between atoms: N_5  and  C_6
REMARK    3  A    between atoms: C_10  and  N_11
REMARK    4  A    between atoms: N_14  and  C_15
REMARK    5  A    between atoms: C_15  and  C_16
REMARK    6  A    between atoms: C_16  and  C_17
REMARK    7  A    between atoms: N_24  and  C_25
REMARK    8  A    between atoms: C_28  and  N_29
REMARK    9  A    between atoms: C_32  and  N_33
REMARK   10  A    between atoms: N_33  and  C_34
REMARK   11  A    between atoms: N_33  and  C_35
REMARK   12  A    between atoms: C_39  and  O_40
REMARK   13  A    between atoms: O_40  and  C_41
REMARK                            x       y       z     vdW  Elec       q    Type
REMARK                         _______ _______ _______ _____ _____    ______ ____
ROOT
ATOM      1  N   UNL     1      20.646   3.716  47.052  0.00  0.00    +0.000 N 
ATOM      2  C   UNL     1      19.848   3.678  45.908  0.00  0.00    +0.000 A 
ATOM      3  O   UNL     1      18.880   2.922  45.785  0.00  0.00    +0.000 OA
ATOM      4  N   UNL     1      20.220   4.527  44.865  0.00  0.00    +0.000 N 
ATOM      5  C   UNL     1      21.301   5.392  44.902  0.00  0.00    +0.000 A 
ATOM      6  O   UNL     1      21.684   6.080  43.961  0.00  0.00    +0.000 OA
ATOM      7  C   UNL     1      22.007   5.485  46.164  0.00  0.00    +0.000 A 
ATOM      8  C   UNL     1      22.976   6.440  46.381  0.00  0.00    +0.000 A 
ATOM      9  N   UNL     1      23.640   6.565  47.545  0.00  0.00    +0.000 NA
ATOM     10  C   UNL     1      23.333   5.686  48.504  0.00  0.00    +0.000 A 
ATOM     11  N   UNL     1      24.044   5.780  49.697  0.00  0.00    +0.000 N 
ATOM     12  N   UNL     1      22.382   4.742  48.367  0.00  0.00    +0.000 NA
ATOM     13  C   UNL     1      21.713   4.643  47.200  0.00  0.00    +0.000 A 
ATOM     14  H   UNL     1      24.306   6.684  49.987  0.00  0.00    +0.000 HD
ENDROOT
BRANCH   1  19
ATOM     15  C   UNL     1      18.767   1.982  49.798  0.00  0.00    +0.000 A 
ATOM     16  C   UNL     1      19.664   0.959  50.105  0.00  0.00    +0.000 A 
ATOM     17  C   UNL     1      20.907   0.889  49.470  0.00  0.00    +0.000 A 
ATOM     18  C   UNL     1      21.262   1.835  48.510  0.00  0.00    +0.000 A 
ATOM     19  C   UNL     1      20.354   2.833  48.138  0.00  0.00    +0.000 A 
ATOM     20  C   UNL     1      19.103   2.888  48.781  0.00  0.00    +0.000 A 
BRANCH  15  23
ATOM     21  C   UNL     1      17.279   3.026  51.505  0.00  0.00    +0.000 C 
ATOM     22  O   UNL     1      18.077   3.783  52.042  0.00  0.00    +0.000 OA
ATOM     23  N   UNL     1      17.529   2.159  50.455  0.00  0.00    +0.000 N 
ATOM     24  H   UNL     1      16.772   1.615  50.136  0.00  0.00    +0.000 HD
BRANCH  21  26
ATOM     25  C   UNL     1      15.384   3.930  52.776  0.00  0.00    +0.000 C 
ATOM     26  C   UNL     1      15.854   2.993  51.940  0.00  0.00    +0.000 C 
ENDBRANCH  21  26
ENDBRANCH  15  23
ENDBRANCH   1  19
BRANCH  11  27
ATOM     27  C   UNL     1      24.427   4.714  50.530  0.00  0.00    +0.000 A 
ATOM     28  C   UNL     1      25.621   4.026  50.276  0.00  0.00    +0.000 A 
ATOM     29  C   UNL     1      26.042   2.962  51.076  0.00  0.00    +0.000 A 
ATOM     30  C   UNL     1      25.306   2.539  52.183  0.00  0.00    +0.000 A 
ATOM     31  C   UNL     1      24.142   3.272  52.467  0.00  0.00    +0.000 A 
ATOM     32  C   UNL     1      23.693   4.340  51.662  0.00  0.00    +0.000 A 
BRANCH  30  33
ATOM     33  N   UNL     1      25.711   1.456  52.937  0.00  0.00    +0.000 N 
ATOM     34  C   UNL     1      26.598   1.589  54.089  0.00  0.00    +0.000 C 
ATOM     35  C   UNL     1      27.903   0.857  53.799  0.00  0.00    +0.000 C 
ATOM     36  C   UNL     1      27.663  -0.611  53.378  0.00  0.00    +0.000 C 
ATOM     37  C   UNL     1      26.592  -0.715  52.271  0.00  0.00    +0.000 C 
ATOM     38  C   UNL     1      25.334   0.085  52.608  0.00  0.00    +0.000 C 
BRANCH  36  39
ATOM     39  N   UNL     1      28.939  -1.316  53.077  0.00  0.00    +0.000 N 
ATOM     40  C   UNL     1      30.069  -0.797  53.849  0.00  0.00    +0.000 C 
ATOM     41  C   UNL     1      28.874  -2.772  53.217  0.00  0.00    +0.000 C 
ATOM     42  H   UNL     1      29.095  -1.118  52.089  0.00  0.00    +0.000 HD
ENDBRANCH  36  39
ENDBRANCH  30  33
BRANCH  32  43
ATOM     43  O   UNL     1      22.550   4.940  52.131  0.00  0.00    +0.000 OA
ATOM     44  C   UNL     1      21.314   4.308  51.818  0.00  0.00    +0.000 C 
ENDBRANCH  32  43
ENDBRANCH  11  27
BRANCH   4  45
ATOM     45  C   UNL     1      19.413   4.500  43.647  0.00  0.00    +0.000 C 
BRANCH  45  46
ATOM     46  C   UNL     1      18.553   5.759  43.484  0.00  0.00    +0.000 C 
ATOM     47  C   UNL     1      17.456   5.885  44.532  0.00  0.00    +0.000 C 
ENDBRANCH  45  46
ENDBRANCH   4  45
TORSDOF 9
ENDMDL
MODEL 8
REMARK VINA RESULT:    -8.398      4.096      9.802
REMARK INTER + INTRA:         -14.376
REMARK INTER:                 -12.383
REMARK INTRA:                  -1.993
REMARK UNBOUND:                -1.559
REMARK  Name = 
REMARK  13 active torsions:
REMARK  status: ('A' for Active; 'I' for Inactive)
REMARK    1  A    between atoms: C_2  and  C_3
REMARK    2  A    between atoms: N_5  and  C_6
REMARK    3  A    between atoms: C_10  and  N_11
REMARK    4  A    between atoms: N_14  and  C_15
REMARK    5  A    between atoms: C_15  and  C_16
REMARK    6  A    between atoms: C_16  and  C_17
REMARK    7  A    between atoms: N_24  and  C_25
REMARK    8  A    between atoms: C_28  and  N_29
REMARK    9  A    between atoms: C_32  and  N_33
REMARK   10  A    between atoms: N_33  and  C_34
REMARK   11  A    between atoms: N_33  and  C_35
REMARK   12  A    between atoms: C_39  and  O_40
REMARK   13  A    between atoms: O_40  and  C_41
REMARK                            x       y       z     vdW  Elec       q    Type
REMARK                         _______ _______ _______ _____ _____    ______ ____
ROOT
ATOM      1  N   UNL     1      22.268   7.501  47.711  0.00  0.00    +0.000 N 
ATOM      2  C   UNL     1      21.849   8.747  47.243  0.00  0.00    +0.000 A 
ATOM      3  O   UNL     1      22.361   9.810  47.605  0.00  0.00    +0.000 OA
ATOM      4  N   UNL     1      20.774   8.745  46.354  0.00  0.00    +0.000 N 
ATOM      5  C   UNL     1      20.123   7.607  45.909  0.00  0.00    +0.000 A 
ATOM      6  O   UNL     1      19.127   7.600  45.193  0.00  0.00    +0.000 OA
ATOM      7  C   UNL     1      20.690   6.338  46.321  0.00  0.00    +0.000 A 
ATOM      8  C   UNL     1      20.247   5.144  45.796  0.00  0.00    +0.000 A 
ATOM      9  N   UNL     1      20.762   3.950  46.145  0.00  0.00    +0.000 NA
ATOM     10  C   UNL     1      21.732   3.964  47.065  0.00  0.00    +0.000 A 
ATOM     11  N   UNL     1      22.241   2.731  47.463  0.00  0.00    +0.000 N 
ATOM     12  N   UNL     1      22.227   5.096  47.603  0.00  0.00    +0.000 NA
ATOM     13  C   UNL     1      21.712   6.285  47.228  0.00  0.00    +0.000 A 
ATOM     14  H   UNL     1      22.289   2.028  46.775  0.00  0.00    +0.000 HD
ENDROOT
BRANCH   1  19
ATOM     15  C   UNL     1      25.719   7.218  49.155  0.00  0.00    +0.000 A 
ATOM     16  C   UNL     1      25.457   7.535  50.488  0.00  0.00    +0.000 A 
ATOM     17  C   UNL     1      24.148   7.762  50.921  0.00  0.00    +0.000 A 
ATOM     18  C   UNL     1      23.086   7.686  50.021  0.00  0.00    +0.000 A 
ATOM     19  C   UNL     1      23.329   7.433  48.667  0.00  0.00    +0.000 A 
ATOM     20  C   UNL     1      24.653   7.213  48.244  0.00  0.00    +0.000 A 
BRANCH  15  23
ATOM     21  C   UNL     1      27.575   5.638  48.627  0.00  0.00    +0.000 C 
ATOM     22  O   UNL     1      27.070   4.589  49.005  0.00  0.00    +0.000 OA
ATOM     23  N   UNL     1      27.006   6.900  48.666  0.00  0.00    +0.000 N 
ATOM     24  H   UNL     1      27.549   7.645  48.320  0.00  0.00    +0.000 HD
BRANCH  21  26
ATOM     25  C   UNL     1      29.446   6.792  47.534  0.00  0.00    +0.000 C 
ATOM     26  C   UNL     1      28.934   5.649  48.013  0.00  0.00    +0.000 C 
ENDBRANCH  21  26
ENDBRANCH  15  23
ENDBRANCH   1  19
BRANCH  11  27
ATOM     27  C   UNL     1      22.694   2.389  48.749  0.00  0.00    +0.000 A 
ATOM     28  C   UNL     1      23.893   2.930  49.232  0.00  0.00    +0.000 A 
ATOM     29  C   UNL     1      24.382   2.620  50.503  0.00  0.00    +0.000 A 
ATOM     30  C   UNL     1      23.693   1.769  51.367  0.00  0.00    +0.000 A 
ATOM     31  C   UNL     1      22.464   1.278  50.900  0.00  0.00    +0.000 A 
ATOM     32  C   UNL     1      21.960   1.568  49.614  0.00  0.00    +0.000 A 
BRANCH  30  33
ATOM     33  N   UNL     1      24.212   1.434  52.602  0.00  0.00    +0.000 N 
ATOM     34  C   UNL     1      24.933   2.391  53.436  0.00  0.00    +0.000 C 
ATOM     35  C   UNL     1      26.376   1.925  53.596  0.00  0.00    +0.000 C 
ATOM     36  C   UNL     1      26.460   0.472  54.119  0.00  0.00    +0.000 C 
ATOM     37  C   UNL     1      25.549  -0.475  53.309  0.00  0.00    +0.000 C 
ATOM     38  C   UNL     1      24.135   0.082  53.146  0.00  0.00    +0.000 C 
BRANCH  36  39
ATOM     39  N   UNL     1      27.870   0.014  54.255  0.00  0.00    +0.000 N 
ATOM     40  C   UNL     1      28.247  -0.970  53.238  0.00  0.00    +0.000 C 
ATOM     41  C   UNL     1      28.857   1.095  54.286  0.00  0.00    +0.000 C 
ATOM     42  H   UNL     1      27.888  -0.433  55.171  0.00  0.00    +0.000 HD
ENDBRANCH  36  39
ENDBRANCH  30  33
BRANCH  32  43
ATOM     43  O   UNL     1      20.729   1.012  49.366  0.00  0.00    +0.000 OA
ATOM     44  C   UNL     1      19.589   1.798  49.696  0.00  0.00    +0.000 C 
ENDBRANCH  32  43
ENDBRANCH  11  27
BRANCH   4  45
ATOM     45  C   UNL     1      20.302  10.035  45.858  0.00  0.00    +0.000 C 
BRANCH  45  46
ATOM     46  C   UNL     1      20.655  10.263  44.383  0.00  0.00    +0.000 C 
ATOM     47  C   UNL     1      22.152  10.354  44.124  0.00  0.00    +0.000 C 
ENDBRANCH  45  46
ENDBRANCH   4  45
TORSDOF 9
ENDMDL
MODEL 9
REMARK VINA RESULT:    -8.371      2.770      6.618
REMARK INTER + INTRA:         -14.335
REMARK INTER:                 -13.451
REMARK INTRA:                  -0.883
REMARK UNBOUND:                -1.559
REMARK  Name = 
REMARK  13 active torsions:
REMARK  status: ('A' for Active; 'I' for Inactive)
REMARK    1  A    between atoms: C_2  and  C_3
REMARK    2  A    between atoms: N_5  and  C_6
REMARK    3  A    between atoms: C_10  and  N_11
REMARK    4  A    between atoms: N_14  and  C_15
REMARK    5  A    between atoms: C_15  and  C_16
REMARK    6  A    between atoms: C_16  and  C_17
REMARK    7  A    between atoms: N_24  and  C_25
REMARK    8  A    between atoms: C_28  and  N_29
REMARK    9  A    between atoms: C_32  and  N_33
REMARK   10  A    between atoms: N_33  and  C_34
REMARK   11  A    between atoms: N_33  and  C_35
REMARK   12  A    between atoms: C_39  and  O_40
REMARK   13  A    between atoms: O_40  and  C_41
REMARK                            x       y       z     vdW  Elec       q    Type
REMARK                         _______ _______ _______ _____ _____    ______ ____
ROOT
ATOM      1  N   UNL     1      23.563   3.677  50.402  0.00  0.00    +0.000 N 
ATOM      2  C   UNL     1      24.666   4.529  50.472  0.00  0.00    +0.000 A 
ATOM      3  O   UNL     1      25.611   4.347  51.245  0.00  0.00    +0.000 OA
ATOM      4  N   UNL     1      24.640   5.645  49.635  0.00  0.00    +0.000 N 
ATOM      5  C   UNL     1      23.615   5.944  48.753  0.00  0.00    +0.000 A 
ATOM      6  O   UNL     1      23.545   6.963  48.074  0.00  0.00    +0.000 OA
ATOM      7  C   UNL     1      22.565   4.952  48.627  0.00  0.00    +0.000 A 
ATOM      8  C   UNL     1      21.596   5.047  47.653  0.00  0.00    +0.000 A 
ATOM      9  N   UNL     1      20.616   4.136  47.499  0.00  0.00    +0.000 NA
ATOM     10  C   UNL     1      20.604   3.119  48.367  0.00  0.00    +0.000 A 
ATOM     11  N   UNL     1      19.570   2.196  48.241  0.00  0.00    +0.000 N 
ATOM     12  N   UNL     1      21.533   2.954  49.328  0.00  0.00    +0.000 NA
ATOM     13  C   UNL     1      22.519   3.866  49.456  0.00  0.00    +0.000 A 
ATOM     14  H   UNL     1      19.252   2.007  47.328  0.00  0.00    +0.000 HD
ENDROOT
BRANCH   1  19
ATOM     15  C   UNL     1      24.606   0.641  52.345  0.00  0.00    +0.000 A 
ATOM     16  C   UNL     1      23.480   0.461  53.147  0.00  0.00    +0.000 A 
ATOM     17  C   UNL     1      22.359   1.281  52.995  0.00  0.00    +0.000 A 
ATOM     18  C   UNL     1      22.357   2.302  52.045  0.00  0.00    +0.000 A 
ATOM     19  C   UNL     1      23.498   2.544  51.271  0.00  0.00    +0.000 A 
ATOM     20  C   UNL     1      24.622   1.714  51.440  0.00  0.00    +0.000 A 
BRANCH  15  23
ATOM     21  C   UNL     1      26.788  -0.107  53.291  0.00  0.00    +0.000 C 
ATOM     22  O   UNL     1      26.912   0.706  54.197  0.00  0.00    +0.000 OA
ATOM     23  N   UNL     1      25.741  -0.199  52.390  0.00  0.00    +0.000 N 
ATOM     24  H   UNL     1      25.793  -0.916  51.717  0.00  0.00    +0.000 HD
BRANCH  21  26
ATOM     25  C   UNL     1      29.081  -0.967  53.452  0.00  0.00    +0.000 C 
ATOM     26  C   UNL     1      27.809  -1.173  53.083  0.00  0.00    +0.000 C 
ENDBRANCH  21  26
ENDBRANCH  15  23
ENDBRANCH   1  19
BRANCH  11  27
ATOM     27  C   UNL     1      18.934   1.505  49.287  0.00  0.00    +0.000 A 
ATOM     28  C   UNL     1      19.688   0.698  50.149  0.00  0.00    +0.000 A 
ATOM     29  C   UNL     1      19.101  -0.007  51.201  0.00  0.00    +0.000 A 
ATOM     30  C   UNL     1      17.733   0.070  51.464  0.00  0.00    +0.000 A 
ATOM     31  C   UNL     1      16.993   0.928  50.634  0.00  0.00    +0.000 A 
ATOM     32  C   UNL     1      17.566   1.636  49.556  0.00  0.00    +0.000 A 
BRANCH  30  33
ATOM     33  N   UNL     1      17.159  -0.668  52.479  0.00  0.00    +0.000 N 
ATOM     34  C   UNL     1      17.951  -1.354  53.496  0.00  0.00    +0.000 C 
ATOM     35  C   UNL     1      17.735  -2.858  53.365  0.00  0.00    +0.000 C 
ATOM     36  C   UNL     1      16.235  -3.232  53.402  0.00  0.00    +0.000 C 
ATOM     37  C   UNL     1      15.410  -2.363  52.429  0.00  0.00    +0.000 C 
ATOM     38  C   UNL     1      15.718  -0.873  52.583  0.00  0.00    +0.000 C 
BRANCH  36  39
ATOM     39  N   UNL     1      16.028  -4.699  53.254  0.00  0.00    +0.000 N 
ATOM     40  C   UNL     1      15.809  -5.372  54.536  0.00  0.00    +0.000 C 
ATOM     41  C   UNL     1      14.967  -5.069  52.315  0.00  0.00    +0.000 C 
ATOM     42  H   UNL     1      16.908  -5.026  52.855  0.00  0.00    +0.000 HD
ENDBRANCH  36  39
ENDBRANCH  30  33
BRANCH  32  43
ATOM     43  O   UNL     1      16.674   2.441  48.890  0.00  0.00    +0.000 OA
ATOM     44  C   UNL     1      15.296   2.269  49.198  0.00  0.00    +0.000 C 
ENDBRANCH  32  43
ENDBRANCH  11  27
BRANCH   4  45
ATOM     45  C   UNL     1      25.774   6.564  49.695  0.00  0.00    +0.000 C 
BRANCH  45  46
ATOM     46  C   UNL     1      26.863   6.222  48.670  0.00  0.00    +0.000 C 
ATOM     47  C   UNL     1      27.304   7.414  47.832  0.00  0.00    +0.000 C 
ENDBRANCH  45  46
ENDBRANCH   4  45
TORSDOF 9
ENDMDL
