REMARK  Name = 
REMARK  10 active torsions:
REMARK  status: ('A' for Active; 'I' for Inactive)
REMARK    1  A    between atoms: C_2  and  C_3
REMARK    2  A    between atoms: N_5  and  C_6
REMARK    3  A    between atoms: C_8  and  N_9
REMARK    4  A    between atoms: C_14  and  C_15
REMARK    5  A    between atoms: C_28  and  O_29
REMARK    6  A    between atoms: O_29  and  C_30
REMARK    7  A    between atoms: C_32  and  N_33
REMARK    8  A    between atoms: C_35  and  N_36
REMARK    9  A    between atoms: N_36  and  C_37
REMARK   10  A    between atoms: N_36  and  C_38
REMARK                            x       y       z     vdW  Elec       q    Type
REMARK                         _______ _______ _______ _____ _____    ______ ____
ROOT
ATOM      1  C   UNL     1      -1.105   1.517  -0.007  0.00  0.00    +0.000 A 
ATOM      2  C   UNL     1      -0.017   2.005  -0.763  0.00  0.00    +0.000 A 
ATOM      3  C   UNL     1       0.616   3.226  -0.470  0.00  0.00    +0.000 A 
ATOM      4  C   UNL     1       0.073   3.980   0.603  0.00  0.00    +0.000 A 
ATOM      5  C   UNL     1      -1.063   3.513   1.316  0.00  0.00    +0.000 A 
ATOM      6  C   UNL     1      -1.651   2.278   1.048  0.00  0.00    +0.000 A 
ENDROOT
BRANCH   3   7
ATOM      7  N   UNL     1       1.800   3.619  -1.153  0.00  0.00    +0.000 N 
ATOM      8  C   UNL     1       2.536   3.111  -2.251  0.00  0.00    +0.000 A 
ATOM      9  N   UNL     1       3.861   3.240  -2.026  0.00  0.00    +0.000 NA
ATOM     10  C   UNL     1       4.706   2.885  -3.006  0.00  0.00    +0.000 A 
ATOM     11  C   UNL     1       4.291   2.397  -4.213  0.00  0.00    +0.000 A 
ATOM     12  C   UNL     1       2.924   2.281  -4.394  0.00  0.00    +0.000 A 
ATOM     13  N   UNL     1       2.027   2.656  -3.424  0.00  0.00    +0.000 NA
ATOM     14  H   UNL     1       2.201   4.434  -0.773  0.00  0.00    +0.000 HD
BRANCH  12  15
ATOM     15  C   UNL     1       2.467   1.950  -5.765  0.00  0.00    +0.000 A 
ATOM     16  C   UNL     1       1.210   2.272  -6.296  0.00  0.00    +0.000 A 
ATOM     17  N   UNL     1       1.325   2.179  -7.649  0.00  0.00    +0.000 N 
ATOM     18  C   UNL     1       2.636   1.945  -7.966  0.00  0.00    +0.000 A 
ATOM     19  C   UNL     1       3.100   1.975  -9.271  0.00  0.00    +0.000 A 
ATOM     20  C   UNL     1       3.893   0.886  -9.576  0.00  0.00    +0.000 A 
ATOM     21  C   UNL     1       4.424   0.101  -8.534  0.00  0.00    +0.000 A 
ATOM     22  C   UNL     1       4.212   0.417  -7.161  0.00  0.00    +0.000 A 
ATOM     23  C   UNL     1       3.180   1.329  -6.871  0.00  0.00    +0.000 A 
ATOM     24  C   UNL     1       2.379   2.949 -10.138  0.00  0.00    +0.000 C 
ATOM     25  C   UNL     1       0.872   2.627 -10.094  0.00  0.00    +0.000 C 
ATOM     26  C   UNL     1       0.397   1.966  -8.758  0.00  0.00    +0.000 C 
ENDBRANCH  12  15
ENDBRANCH   3   7
BRANCH   1  29
ATOM     27  C   UNL     1      -1.166  -0.800  -0.959  0.00  0.00    +0.000 C 
ATOM     28  O   UNL     1      -0.121  -0.801  -1.595  0.00  0.00    +0.000 OA
ATOM     29  N   UNL     1      -1.658   0.229  -0.177  0.00  0.00    +0.000 N 
ATOM     30  H   UNL     1      -2.489   0.043   0.318  0.00  0.00    +0.000 HD
BRANCH  27  32
ATOM     31  C   UNL     1      -1.528  -3.163  -1.410  0.00  0.00    +0.000 C 
ATOM     32  C   UNL     1      -1.987  -2.028  -0.878  0.00  0.00    +0.000 C 
ENDBRANCH  27  32
ENDBRANCH   1  29
BRANCH   6  33
ATOM     33  N   UNL     1      -2.695   1.719   1.874  0.00  0.00    +0.000 N 
ATOM     34  C   UNL     1      -2.883   2.019   3.280  0.00  0.00    +0.000 C 
ATOM     35  C   UNL     1      -4.306   2.518   2.984  0.00  0.00    +0.000 C 
ATOM     36  C   UNL     1      -4.111   1.862   1.604  0.00  0.00    +0.000 C 
BRANCH  35  37
ATOM     37  N   UNL     1      -5.304   1.797   3.824  0.00  0.00    +0.000 N 
ATOM     38  C   UNL     1      -5.147   2.207   5.229  0.00  0.00    +0.000 C 
ATOM     39  C   UNL     1      -6.664   2.150   3.396  0.00  0.00    +0.000 C 
ATOM     40  H   UNL     1      -5.153   0.793   3.724  0.00  0.00    +0.000 HD
ENDBRANCH  35  37
ENDBRANCH   6  33
BRANCH   4  41
ATOM     41  O   UNL     1       0.486   5.158   1.167  0.00  0.00    +0.000 OA
ATOM     42  C   UNL     1       1.595   5.881   0.679  0.00  0.00    +0.000 C 
ENDBRANCH   4  41
TORSDOF 7
