MODEL 1
REMARK VINA RESULT:    -8.532      0.000      0.000
REMARK INTER + INTRA:         -13.426
REMARK INTER:                 -12.273
REMARK INTRA:                  -1.154
REMARK UNBOUND:                -1.154
REMARK  Name = 
REMARK  8 active torsions:
REMARK  status: ('A' for Active; 'I' for Inactive)
REMARK    1  A    between atoms: N_1  and  C_2
REMARK    2  A    between atoms: C_2  and  C_3
REMARK    3  A    between atoms: C_3  and  O_4
REMARK    4  A    between atoms: O_4  and  C_5
REMARK    5  A    between atoms: C_5  and  C_6
REMARK    6  A    between atoms: N_14  and  C_15
REMARK    7  A    between atoms: N_22  and  C_23
REMARK    8  A    between atoms: C_23  and  C_24
REMARK                            x       y       z     vdW  Elec       q    Type
REMARK                         _______ _______ _______ _____ _____    ______ ____
ROOT
ATOM      1  C   UNL     1      24.877   1.440  53.132  0.00  0.00    +0.000 A 
ATOM      2  C   UNL     1      24.154   0.265  53.518  0.00  0.00    +0.000 A 
ATOM      3  C   UNL     1      23.147   0.075  52.610  0.00  0.00    +0.000 A 
ATOM      4  N   UNL     1      23.215   1.081  51.691  0.00  0.00    +0.000 N 
ATOM      5  N   UNL     1      22.289   1.301  50.752  0.00  0.00    +0.000 NA
ATOM      6  C   UNL     1      22.545   2.326  50.009  0.00  0.00    +0.000 A 
ATOM      7  N   UNL     1      23.663   3.103  50.060  0.00  0.00    +0.000 NA
ATOM      8  C   UNL     1      24.586   2.914  50.963  0.00  0.00    +0.000 A 
ATOM      9  N   UNL     1      25.740   3.692  50.941  0.00  0.00    +0.000 N 
ATOM     10  C   UNL     1      24.326   1.854  51.917  0.00  0.00    +0.000 A 
ATOM     11  H   UNL     1      26.389   3.587  51.676  0.00  0.00    +0.000 HD
ENDROOT
BRANCH   9  12
ATOM     12  C   UNL     1      26.028   4.628  49.914  0.00  0.00    +0.000 A 
ATOM     13  C   UNL     1      27.139   4.451  49.074  0.00  0.00    +0.000 A 
ATOM     14  C   UNL     1      27.628   5.461  48.232  0.00  0.00    +0.000 A 
ATOM     15  C   UNL     1      26.961   6.684  48.260  0.00  0.00    +0.000 A 
ATOM     16  C   UNL     1      25.807   6.885  49.018  0.00  0.00    +0.000 A 
ATOM     17  C   UNL     1      25.446   8.225  48.755  0.00  0.00    +0.000 A 
ATOM     18  N   UNL     1      26.303   8.852  47.950  0.00  0.00    +0.000 NA
ATOM     19  N   UNL     1      27.213   7.893  47.650  0.00  0.00    +0.000 N 
ATOM     20  C   UNL     1      25.314   5.838  49.832  0.00  0.00    +0.000 A 
BRANCH  19  21
ATOM     21  C   UNL     1      28.340   8.221  46.783  0.00  0.00    +0.000 C 
BRANCH  21  22
ATOM     22  C   UNL     1      29.616   8.287  47.583  0.00  0.00    +0.000 A 
ATOM     23  C   UNL     1      30.613   7.313  47.404  0.00  0.00    +0.000 A 
ATOM     24  C   UNL     1      31.745   7.295  48.223  0.00  0.00    +0.000 A 
ATOM     25  C   UNL     1      31.893   8.250  49.225  0.00  0.00    +0.000 A 
ATOM     26  C   UNL     1      30.918   9.226  49.387  0.00  0.00    +0.000 A 
ATOM     27  F   UNL     1      31.058  10.143  50.355  0.00  0.00    +0.000 F 
ATOM     28  C   UNL     1      29.788   9.257  48.579  0.00  0.00    +0.000 A 
ENDBRANCH  21  22
ENDBRANCH  19  21
ENDBRANCH   9  12
BRANCH   1  29
ATOM     29  C   UNL     1      25.965   2.021  53.976  0.00  0.00    +0.000 C 
BRANCH  29  30
ATOM     30  O   UNL     1      27.115   2.492  53.275  0.00  0.00    +0.000 OA
BRANCH  30  31
ATOM     31  C   UNL     1      28.382   2.004  53.730  0.00  0.00    +0.000 C 
BRANCH  31  32
ATOM     32  C   UNL     1      28.584   0.481  53.691  0.00  0.00    +0.000 C 
BRANCH  32  33
ATOM     33  N   UNL     1      28.582  -0.149  55.012  0.00  0.00    +0.000 N 
ATOM     34  H   UNL     1      28.956  -1.096  54.937  0.00  0.00    +0.000 HD
ATOM     35  H   UNL     1      27.627  -0.188  55.367  0.00  0.00    +0.000 HD
ATOM     36  H   UNL     1      29.160   0.397  55.651  0.00  0.00    +0.000 HD
ENDBRANCH  32  33
ENDBRANCH  31  32
ENDBRANCH  30  31
ENDBRANCH  29  30
ENDBRANCH   1  29
TORSDOF 8
ENDMDL
MODEL 2
REMARK VINA RESULT:    -8.335      2.154      2.836
REMARK INTER + INTRA:         -13.144
REMARK INTER:                 -11.850
REMARK INTRA:                  -1.293
REMARK UNBOUND:                -1.154
REMARK  Name = 
REMARK  8 active torsions:
REMARK  status: ('A' for Active; 'I' for Inactive)
REMARK    1  A    between atoms: N_1  and  C_2
REMARK    2  A    between atoms: C_2  and  C_3
REMARK    3  A    between atoms: C_3  and  O_4
REMARK    4  A    between atoms: O_4  and  C_5
REMARK    5  A    between atoms: C_5  and  C_6
REMARK    6  A    between atoms: N_14  and  C_15
REMARK    7  A    between atoms: N_22  and  C_23
REMARK    8  A    between atoms: C_23  and  C_24
REMARK                            x       y       z     vdW  Elec       q    Type
REMARK                         _______ _______ _______ _____ _____    ______ ____
ROOT
ATOM      1  C   UNL     1      23.198  -0.262  53.576  0.00  0.00    +0.000 A 
ATOM      2  C   UNL     1      22.288  -1.276  54.021  0.00  0.00    +0.000 A 
ATOM      3  C   UNL     1      21.016  -0.841  53.759  0.00  0.00    +0.000 A 
ATOM      4  N   UNL     1      21.104   0.392  53.183  0.00  0.00    +0.000 N 
ATOM      5  N   UNL     1      20.052   1.183  52.942  0.00  0.00    +0.000 NA
ATOM      6  C   UNL     1      20.374   2.318  52.417  0.00  0.00    +0.000 A 
ATOM      7  N   UNL     1      21.622   2.711  52.041  0.00  0.00    +0.000 NA
ATOM      8  C   UNL     1      22.669   1.962  52.260  0.00  0.00    +0.000 A 
ATOM      9  N   UNL     1      23.918   2.375  51.805  0.00  0.00    +0.000 N 
ATOM     10  C   UNL     1      22.418   0.715  52.954  0.00  0.00    +0.000 A 
ATOM     11  H   UNL     1      24.706   1.836  52.047  0.00  0.00    +0.000 HD
ENDROOT
BRANCH   9  12
ATOM     12  C   UNL     1      24.112   3.535  51.009  0.00  0.00    +0.000 A 
ATOM     13  C   UNL     1      24.690   3.440  49.733  0.00  0.00    +0.000 A 
ATOM     14  C   UNL     1      25.151   4.555  49.019  0.00  0.00    +0.000 A 
ATOM     15  C   UNL     1      25.020   5.798  49.636  0.00  0.00    +0.000 A 
ATOM     16  C   UNL     1      24.384   5.953  50.868  0.00  0.00    +0.000 A 
ATOM     17  C   UNL     1      24.449   7.342  51.121  0.00  0.00    +0.000 A 
ATOM     18  N   UNL     1      25.105   8.018  50.178  0.00  0.00    +0.000 NA
ATOM     19  N   UNL     1      25.436   7.061  49.277  0.00  0.00    +0.000 N 
ATOM     20  C   UNL     1      23.896   4.816  51.552  0.00  0.00    +0.000 A 
BRANCH  19  21
ATOM     21  C   UNL     1      26.196   7.431  48.087  0.00  0.00    +0.000 C 
BRANCH  21  22
ATOM     22  C   UNL     1      27.675   7.321  48.353  0.00  0.00    +0.000 A 
ATOM     23  C   UNL     1      28.398   8.440  48.798  0.00  0.00    +0.000 A 
ATOM     24  C   UNL     1      29.787   8.381  48.932  0.00  0.00    +0.000 A 
ATOM     25  C   UNL     1      30.466   7.205  48.624  0.00  0.00    +0.000 A 
ATOM     26  C   UNL     1      29.750   6.092  48.206  0.00  0.00    +0.000 A 
ATOM     27  F   UNL     1      30.403   4.961  47.905  0.00  0.00    +0.000 F 
ATOM     28  C   UNL     1      28.367   6.135  48.069  0.00  0.00    +0.000 A 
ENDBRANCH  21  22
ENDBRANCH  19  21
ENDBRANCH   9  12
BRANCH   1  29
ATOM     29  C   UNL     1      24.669  -0.345  53.827  0.00  0.00    +0.000 C 
BRANCH  29  30
ATOM     30  O   UNL     1      25.509  -0.045  52.713  0.00  0.00    +0.000 OA
BRANCH  30  31
ATOM     31  C   UNL     1      26.883   0.233  53.009  0.00  0.00    +0.000 C 
BRANCH  31  32
ATOM     32  C   UNL     1      27.364   1.668  52.746  0.00  0.00    +0.000 C 
BRANCH  32  33
ATOM     33  N   UNL     1      27.208   2.563  53.894  0.00  0.00    +0.000 N 
ATOM     34  H   UNL     1      27.906   3.307  53.842  0.00  0.00    +0.000 HD
ATOM     35  H   UNL     1      27.339   2.035  54.756  0.00  0.00    +0.000 HD
ATOM     36  H   UNL     1      26.274   2.971  53.883  0.00  0.00    +0.000 HD
ENDBRANCH  32  33
ENDBRANCH  31  32
ENDBRANCH  30  31
ENDBRANCH  29  30
ENDBRANCH   1  29
TORSDOF 8
ENDMDL
MODEL 3
REMARK VINA RESULT:    -8.162      5.658      8.478
REMARK INTER + INTRA:         -12.894
REMARK INTER:                 -12.112
REMARK INTRA:                  -0.783
REMARK UNBOUND:                -1.154
REMARK  Name = 
REMARK  8 active torsions:
REMARK  status: ('A' for Active; 'I' for Inactive)
REMARK    1  A    between atoms: N_1  and  C_2
REMARK    2  A    between atoms: C_2  and  C_3
REMARK    3  A    between atoms: C_3  and  O_4
REMARK    4  A    between atoms: O_4  and  C_5
REMARK    5  A    between atoms: C_5  and  C_6
REMARK    6  A    between atoms: N_14  and  C_15
REMARK    7  A    between atoms: N_22  and  C_23
REMARK    8  A    between atoms: C_23  and  C_24
REMARK                            x       y       z     vdW  Elec       q    Type
REMARK                         _______ _______ _______ _____ _____    ______ ____
ROOT
ATOM      1  C   UNL     1      17.446   1.318  50.017  0.00  0.00    +0.000 A 
ATOM      2  C   UNL     1      16.391   2.031  49.360  0.00  0.00    +0.000 A 
ATOM      3  C   UNL     1      16.773   3.343  49.256  0.00  0.00    +0.000 A 
ATOM      4  N   UNL     1      18.007   3.466  49.823  0.00  0.00    +0.000 N 
ATOM      5  N   UNL     1      18.616   4.637  50.043  0.00  0.00    +0.000 NA
ATOM      6  C   UNL     1      19.766   4.516  50.618  0.00  0.00    +0.000 A 
ATOM      7  N   UNL     1      20.399   3.351  50.926  0.00  0.00    +0.000 NA
ATOM      8  C   UNL     1      19.832   2.192  50.724  0.00  0.00    +0.000 A 
ATOM      9  N   UNL     1      20.539   1.024  50.997  0.00  0.00    +0.000 N 
ATOM     10  C   UNL     1      18.487   2.234  50.187  0.00  0.00    +0.000 A 
ATOM     11  H   UNL     1      20.068   0.162  50.912  0.00  0.00    +0.000 HD
ENDROOT
BRANCH   9  12
ATOM     12  C   UNL     1      21.902   1.013  51.392  0.00  0.00    +0.000 A 
ATOM     13  C   UNL     1      22.293   0.419  52.602  0.00  0.00    +0.000 A 
ATOM     14  C   UNL     1      23.561   0.609  53.172  0.00  0.00    +0.000 A 
ATOM     15  C   UNL     1      24.445   1.436  52.482  0.00  0.00    +0.000 A 
ATOM     16  C   UNL     1      24.132   1.988  51.239  0.00  0.00    +0.000 A 
ATOM     17  C   UNL     1      25.282   2.729  50.886  0.00  0.00    +0.000 A 
ATOM     18  N   UNL     1      26.228   2.708  51.824  0.00  0.00    +0.000 NA
ATOM     19  N   UNL     1      25.704   1.907  52.783  0.00  0.00    +0.000 N 
ATOM     20  C   UNL     1      22.859   1.751  50.669  0.00  0.00    +0.000 A 
BRANCH  19  21
ATOM     21  C   UNL     1      26.466   1.657  54.003  0.00  0.00    +0.000 C 
BRANCH  21  22
ATOM     22  C   UNL     1      27.407   0.497  53.806  0.00  0.00    +0.000 A 
ATOM     23  C   UNL     1      28.781   0.651  54.058  0.00  0.00    +0.000 A 
ATOM     24  C   UNL     1      29.677  -0.379  53.765  0.00  0.00    +0.000 A 
ATOM     25  C   UNL     1      29.211  -1.572  53.220  0.00  0.00    +0.000 A 
ATOM     26  C   UNL     1      27.851  -1.733  52.992  0.00  0.00    +0.000 A 
ATOM     27  F   UNL     1      27.401  -2.880  52.463  0.00  0.00    +0.000 F 
ATOM     28  C   UNL     1      26.947  -0.717  53.280  0.00  0.00    +0.000 A 
ENDBRANCH  21  22
ENDBRANCH  19  21
ENDBRANCH   9  12
BRANCH   1  29
ATOM     29  C   UNL     1      17.311  -0.116  50.416  0.00  0.00    +0.000 C 
BRANCH  29  30
ATOM     30  O   UNL     1      17.940  -0.483  51.643  0.00  0.00    +0.000 OA
BRANCH  30  31
ATOM     31  C   UNL     1      17.173  -1.304  52.531  0.00  0.00    +0.000 C 
BRANCH  31  32
ATOM     32  C   UNL     1      17.960  -2.097  53.586  0.00  0.00    +0.000 C 
BRANCH  32  33
ATOM     33  N   UNL     1      19.255  -1.503  53.925  0.00  0.00    +0.000 N 
ATOM     34  H   UNL     1      19.218  -1.129  54.874  0.00  0.00    +0.000 HD
ATOM     35  H   UNL     1      19.465  -0.750  53.271  0.00  0.00    +0.000 HD
ATOM     36  H   UNL     1      19.982  -2.216  53.868  0.00  0.00    +0.000 HD
ENDBRANCH  32  33
ENDBRANCH  31  32
ENDBRANCH  30  31
ENDBRANCH  29  30
ENDBRANCH   1  29
TORSDOF 8
ENDMDL
MODEL 4
REMARK VINA RESULT:    -7.900      4.984      8.040
REMARK INTER + INTRA:         -12.517
REMARK INTER:                 -11.373
REMARK INTRA:                  -1.144
REMARK UNBOUND:                -1.154
REMARK  Name = 
REMARK  8 active torsions:
REMARK  status: ('A' for Active; 'I' for Inactive)
REMARK    1  A    between atoms: N_1  and  C_2
REMARK    2  A    between atoms: C_2  and  C_3
REMARK    3  A    between atoms: C_3  and  O_4
REMARK    4  A    between atoms: O_4  and  C_5
REMARK    5  A    between atoms: C_5  and  C_6
REMARK    6  A    between atoms: N_14  and  C_15
REMARK    7  A    between atoms: N_22  and  C_23
REMARK    8  A    between atoms: C_23  and  C_24
REMARK                            x       y       z     vdW  Elec       q    Type
REMARK                         _______ _______ _______ _____ _____    ______ ____
ROOT
ATOM      1  C   UNL     1      18.312   4.506  49.833  0.00  0.00    +0.000 A 
ATOM      2  C   UNL     1      16.889   4.342  49.778  0.00  0.00    +0.000 A 
ATOM      3  C   UNL     1      16.611   3.018  49.991  0.00  0.00    +0.000 A 
ATOM      4  N   UNL     1      17.795   2.364  50.166  0.00  0.00    +0.000 N 
ATOM      5  N   UNL     1      17.912   1.033  50.237  0.00  0.00    +0.000 NA
ATOM      6  C   UNL     1      19.131   0.632  50.375  0.00  0.00    +0.000 A 
ATOM      7  N   UNL     1      20.231   1.422  50.525  0.00  0.00    +0.000 NA
ATOM      8  C   UNL     1      20.151   2.723  50.462  0.00  0.00    +0.000 A 
ATOM      9  N   UNL     1      21.290   3.494  50.680  0.00  0.00    +0.000 N 
ATOM     10  C   UNL     1      18.833   3.261  50.191  0.00  0.00    +0.000 A 
ATOM     11  H   UNL     1      21.226   4.469  50.552  0.00  0.00    +0.000 HD
ENDROOT
BRANCH   9  12
ATOM     12  C   UNL     1      22.537   2.945  51.079  0.00  0.00    +0.000 A 
ATOM     13  C   UNL     1      22.679   2.320  52.327  0.00  0.00    +0.000 A 
ATOM     14  C   UNL     1      23.926   2.003  52.886  0.00  0.00    +0.000 A 
ATOM     15  C   UNL     1      25.054   2.345  52.143  0.00  0.00    +0.000 A 
ATOM     16  C   UNL     1      24.965   2.897  50.865  0.00  0.00    +0.000 A 
ATOM     17  C   UNL     1      26.309   3.072  50.466  0.00  0.00    +0.000 A 
ATOM     18  N   UNL     1      27.186   2.720  51.406  0.00  0.00    +0.000 NA
ATOM     19  N   UNL     1      26.403   2.270  52.416  0.00  0.00    +0.000 N 
ATOM     20  C   UNL     1      23.694   3.173  50.310  0.00  0.00    +0.000 A 
BRANCH  19  21
ATOM     21  C   UNL     1      27.025   1.805  53.651  0.00  0.00    +0.000 C 
BRANCH  21  22
ATOM     22  C   UNL     1      27.700   0.477  53.432  0.00  0.00    +0.000 A 
ATOM     23  C   UNL     1      26.960  -0.626  52.972  0.00  0.00    +0.000 A 
ATOM     24  C   UNL     1      27.549  -1.889  52.879  0.00  0.00    +0.000 A 
ATOM     25  C   UNL     1      28.881  -2.063  53.243  0.00  0.00    +0.000 A 
ATOM     26  C   UNL     1      29.620  -0.970  53.677  0.00  0.00    +0.000 A 
ATOM     27  F   UNL     1      30.901  -1.138  54.032  0.00  0.00    +0.000 F 
ATOM     28  C   UNL     1      29.048   0.294  53.773  0.00  0.00    +0.000 A 
ENDBRANCH  21  22
ENDBRANCH  19  21
ENDBRANCH   9  12
BRANCH   1  29
ATOM     29  C   UNL     1      18.978   5.805  49.510  0.00  0.00    +0.000 C 
BRANCH  29  30
ATOM     30  O   UNL     1      20.339   5.719  49.088  0.00  0.00    +0.000 OA
BRANCH  30  31
ATOM     31  C   UNL     1      21.079   6.946  49.075  0.00  0.00    +0.000 C 
BRANCH  31  32
ATOM     32  C   UNL     1      21.216   7.679  50.419  0.00  0.00    +0.000 C 
BRANCH  32  33
ATOM     33  N   UNL     1      21.903   6.898  51.450  0.00  0.00    +0.000 N 
ATOM     34  H   UNL     1      22.040   7.478  52.278  0.00  0.00    +0.000 HD
ATOM     35  H   UNL     1      22.808   6.591  51.095  0.00  0.00    +0.000 HD
ATOM     36  H   UNL     1      21.339   6.084  51.693  0.00  0.00    +0.000 HD
ENDBRANCH  32  33
ENDBRANCH  31  32
ENDBRANCH  30  31
ENDBRANCH  29  30
ENDBRANCH   1  29
TORSDOF 8
ENDMDL
MODEL 5
REMARK VINA RESULT:    -7.892      2.760      5.047
REMARK INTER + INTRA:         -12.506
REMARK INTER:                 -11.169
REMARK INTRA:                  -1.337
REMARK UNBOUND:                -1.154
REMARK  Name = 
REMARK  8 active torsions:
REMARK  status: ('A' for Active; 'I' for Inactive)
REMARK    1  A    between atoms: N_1  and  C_2
REMARK    2  A    between atoms: C_2  and  C_3
REMARK    3  A    between atoms: C_3  and  O_4
REMARK    4  A    between atoms: O_4  and  C_5
REMARK    5  A    between atoms: C_5  and  C_6
REMARK    6  A    between atoms: N_14  and  C_15
REMARK    7  A    between atoms: N_22  and  C_23
REMARK    8  A    between atoms: C_23  and  C_24
REMARK                            x       y       z     vdW  Elec       q    Type
REMARK                         _______ _______ _______ _____ _____    ______ ____
ROOT
ATOM      1  C   UNL     1      20.919  -0.327  53.332  0.00  0.00    +0.000 A 
ATOM      2  C   UNL     1      21.139  -1.318  54.343  0.00  0.00    +0.000 A 
ATOM      3  C   UNL     1      22.464  -1.278  54.687  0.00  0.00    +0.000 A 
ATOM      4  N   UNL     1      23.066  -0.316  53.930  0.00  0.00    +0.000 N 
ATOM      5  N   UNL     1      24.387  -0.115  53.887  0.00  0.00    +0.000 NA
ATOM      6  C   UNL     1      24.735   0.831  53.080  0.00  0.00    +0.000 A 
ATOM      7  N   UNL     1      23.900   1.641  52.373  0.00  0.00    +0.000 NA
ATOM      8  C   UNL     1      22.605   1.472  52.394  0.00  0.00    +0.000 A 
ATOM      9  N   UNL     1      21.784   2.360  51.705  0.00  0.00    +0.000 N 
ATOM     10  C   UNL     1      22.129   0.355  53.185  0.00  0.00    +0.000 A 
ATOM     11  H   UNL     1      20.817   2.171  51.669  0.00  0.00    +0.000 HD
ENDROOT
BRANCH   9  12
ATOM     12  C   UNL     1      22.270   3.523  51.053  0.00  0.00    +0.000 A 
ATOM     13  C   UNL     1      22.434   3.547  49.659  0.00  0.00    +0.000 A 
ATOM     14  C   UNL     1      23.152   4.551  48.991  0.00  0.00    +0.000 A 
ATOM     15  C   UNL     1      23.721   5.549  49.780  0.00  0.00    +0.000 A 
ATOM     16  C   UNL     1      23.523   5.611  51.160  0.00  0.00    +0.000 A 
ATOM     17  C   UNL     1      24.241   6.759  51.564  0.00  0.00    +0.000 A 
ATOM     18  N   UNL     1      24.885   7.356  50.561  0.00  0.00    +0.000 NA
ATOM     19  N   UNL     1      24.548   6.610  49.481  0.00  0.00    +0.000 N 
ATOM     20  C   UNL     1      22.764   4.607  51.803  0.00  0.00    +0.000 A 
BRANCH  19  21
ATOM     21  C   UNL     1      25.091   6.958  48.172  0.00  0.00    +0.000 C 
BRANCH  21  22
ATOM     22  C   UNL     1      26.556   6.611  48.102  0.00  0.00    +0.000 A 
ATOM     23  C   UNL     1      27.008   5.360  48.552  0.00  0.00    +0.000 A 
ATOM     24  C   UNL     1      28.375   5.073  48.603  0.00  0.00    +0.000 A 
ATOM     25  C   UNL     1      29.301   6.033  48.205  0.00  0.00    +0.000 A 
ATOM     26  C   UNL     1      28.854   7.263  47.740  0.00  0.00    +0.000 A 
ATOM     27  F   UNL     1      29.745   8.189  47.361  0.00  0.00    +0.000 F 
ATOM     28  C   UNL     1      27.497   7.561  47.681  0.00  0.00    +0.000 A 
ENDBRANCH  21  22
ENDBRANCH  19  21
ENDBRANCH   9  12
BRANCH   1  29
ATOM     29  C   UNL     1      19.608  -0.183  52.627  0.00  0.00    +0.000 C 
BRANCH  29  30
ATOM     30  O   UNL     1      19.177   1.154  52.379  0.00  0.00    +0.000 OA
BRANCH  30  31
ATOM     31  C   UNL     1      18.181   1.323  51.363  0.00  0.00    +0.000 C 
BRANCH  31  32
ATOM     32  C   UNL     1      18.633   2.015  50.068  0.00  0.00    +0.000 C 
BRANCH  32  33
ATOM     33  N   UNL     1      19.548   1.210  49.256  0.00  0.00    +0.000 N 
ATOM     34  H   UNL     1      20.280   1.810  48.876  0.00  0.00    +0.000 HD
ATOM     35  H   UNL     1      19.031   0.777  48.492  0.00  0.00    +0.000 HD
ATOM     36  H   UNL     1      19.969   0.485  49.836  0.00  0.00    +0.000 HD
ENDBRANCH  32  33
ENDBRANCH  31  32
ENDBRANCH  30  31
ENDBRANCH  29  30
ENDBRANCH   1  29
TORSDOF 8
ENDMDL
MODEL 6
REMARK VINA RESULT:    -7.680      5.258      8.446
REMARK INTER + INTRA:         -12.201
REMARK INTER:                 -11.360
REMARK INTRA:                  -0.841
REMARK UNBOUND:                -1.154
REMARK  Name = 
REMARK  8 active torsions:
REMARK  status: ('A' for Active; 'I' for Inactive)
REMARK    1  A    between atoms: N_1  and  C_2
REMARK    2  A    between atoms: C_2  and  C_3
REMARK    3  A    between atoms: C_3  and  O_4
REMARK    4  A    between atoms: O_4  and  C_5
REMARK    5  A    between atoms: C_5  and  C_6
REMARK    6  A    between atoms: N_14  and  C_15
REMARK    7  A    between atoms: N_22  and  C_23
REMARK    8  A    between atoms: C_23  and  C_24
REMARK                            x       y       z     vdW  Elec       q    Type
REMARK                         _______ _______ _______ _____ _____    ______ ____
ROOT
ATOM      1  C   UNL     1      18.211   3.660  49.852  0.00  0.00    +0.000 A 
ATOM      2  C   UNL     1      16.793   3.544  50.016  0.00  0.00    +0.000 A 
ATOM      3  C   UNL     1      16.544   2.399  50.725  0.00  0.00    +0.000 A 
ATOM      4  N   UNL     1      17.742   1.806  50.998  0.00  0.00    +0.000 N 
ATOM      5  N   UNL     1      17.869   0.588  51.535  0.00  0.00    +0.000 NA
ATOM      6  C   UNL     1      19.097   0.216  51.677  0.00  0.00    +0.000 A 
ATOM      7  N   UNL     1      20.206   0.961  51.408  0.00  0.00    +0.000 NA
ATOM      8  C   UNL     1      20.116   2.154  50.885  0.00  0.00    +0.000 A 
ATOM      9  N   UNL     1      21.270   2.905  50.683  0.00  0.00    +0.000 N 
ATOM     10  C   UNL     1      18.774   2.609  50.581  0.00  0.00    +0.000 A 
ATOM     11  H   UNL     1      21.190   3.770  50.216  0.00  0.00    +0.000 HD
ENDROOT
BRANCH   9  12
ATOM     12  C   UNL     1      22.556   2.488  51.116  0.00  0.00    +0.000 A 
ATOM     13  C   UNL     1      22.735   1.926  52.389  0.00  0.00    +0.000 A 
ATOM     14  C   UNL     1      23.998   1.747  52.974  0.00  0.00    +0.000 A 
ATOM     15  C   UNL     1      25.101   2.163  52.232  0.00  0.00    +0.000 A 
ATOM     16  C   UNL     1      24.981   2.657  50.933  0.00  0.00    +0.000 A 
ATOM     17  C   UNL     1      26.309   2.940  50.542  0.00  0.00    +0.000 A 
ATOM     18  N   UNL     1      27.201   2.705  51.505  0.00  0.00    +0.000 NA
ATOM     19  N   UNL     1      26.447   2.223  52.522  0.00  0.00    +0.000 N 
ATOM     20  C   UNL     1      23.698   2.794  50.352  0.00  0.00    +0.000 A 
BRANCH  19  21
ATOM     21  C   UNL     1      27.090   1.863  53.782  0.00  0.00    +0.000 C 
BRANCH  21  22
ATOM     22  C   UNL     1      27.790   0.535  53.654  0.00  0.00    +0.000 A 
ATOM     23  C   UNL     1      29.145   0.413  54.006  0.00  0.00    +0.000 A 
ATOM     24  C   UNL     1      29.834  -0.780  53.779  0.00  0.00    +0.000 A 
ATOM     25  C   UNL     1      29.178  -1.863  53.200  0.00  0.00    +0.000 A 
ATOM     26  C   UNL     1      27.833  -1.750  52.872  0.00  0.00    +0.000 A 
ATOM     27  F   UNL     1      27.201  -2.791  52.310  0.00  0.00    +0.000 F 
ATOM     28  C   UNL     1      27.134  -0.569  53.094  0.00  0.00    +0.000 A 
ENDBRANCH  21  22
ENDBRANCH  19  21
ENDBRANCH   9  12
BRANCH   1  29
ATOM     29  C   UNL     1      18.833   4.726  49.009  0.00  0.00    +0.000 C 
BRANCH  29  30
ATOM     30  O   UNL     1      19.999   4.344  48.280  0.00  0.00    +0.000 OA
BRANCH  30  31
ATOM     31  C   UNL     1      19.795   3.458  47.173  0.00  0.00    +0.000 C 
BRANCH  31  32
ATOM     32  C   UNL     1      18.535   3.696  46.327  0.00  0.00    +0.000 C 
BRANCH  32  33
ATOM     33  N   UNL     1      17.600   2.570  46.330  0.00  0.00    +0.000 N 
ATOM     34  H   UNL     1      18.085   1.727  46.640  0.00  0.00    +0.000 HD
ATOM     35  H   UNL     1      17.239   2.427  45.387  0.00  0.00    +0.000 HD
ATOM     36  H   UNL     1      16.827   2.771  46.964  0.00  0.00    +0.000 HD
ENDBRANCH  32  33
ENDBRANCH  31  32
ENDBRANCH  30  31
ENDBRANCH  29  30
ENDBRANCH   1  29
TORSDOF 8
ENDMDL
MODEL 7
REMARK VINA RESULT:    -7.634      2.471      3.106
REMARK INTER + INTRA:         -12.135
REMARK INTER:                 -11.417
REMARK INTRA:                  -0.717
REMARK UNBOUND:                -1.154
REMARK  Name = 
REMARK  8 active torsions:
REMARK  status: ('A' for Active; 'I' for Inactive)
REMARK    1  A    between atoms: N_1  and  C_2
REMARK    2  A    between atoms: C_2  and  C_3
REMARK    3  A    between atoms: C_3  and  O_4
REMARK    4  A    between atoms: O_4  and  C_5
REMARK    5  A    between atoms: C_5  and  C_6
REMARK    6  A    between atoms: N_14  and  C_15
REMARK    7  A    between atoms: N_22  and  C_23
REMARK    8  A    between atoms: C_23  and  C_24
REMARK                            x       y       z     vdW  Elec       q    Type
REMARK                         _______ _______ _______ _____ _____    ______ ____
ROOT
ATOM      1  C   UNL     1      24.559   0.256  53.465  0.00  0.00    +0.000 A 
ATOM      2  C   UNL     1      24.026  -0.954  54.016  0.00  0.00    +0.000 A 
ATOM      3  C   UNL     1      22.660  -0.881  53.945  0.00  0.00    +0.000 A 
ATOM      4  N   UNL     1      22.333   0.318  53.384  0.00  0.00    +0.000 N 
ATOM      5  N   UNL     1      21.085   0.794  53.309  0.00  0.00    +0.000 NA
ATOM      6  C   UNL     1      21.014   1.962  52.764  0.00  0.00    +0.000 A 
ATOM      7  N   UNL     1      22.045   2.667  52.222  0.00  0.00    +0.000 NA
ATOM      8  C   UNL     1      23.274   2.231  52.277  0.00  0.00    +0.000 A 
ATOM      9  N   UNL     1      24.290   2.953  51.657  0.00  0.00    +0.000 N 
ATOM     10  C   UNL     1      23.466   0.976  52.978  0.00  0.00    +0.000 A 
ATOM     11  H   UNL     1      25.220   2.649  51.776  0.00  0.00    +0.000 HD
ENDROOT
BRANCH   9  12
ATOM     12  C   UNL     1      24.052   4.105  50.863  0.00  0.00    +0.000 A 
ATOM     13  C   UNL     1      24.032   4.018  49.462  0.00  0.00    +0.000 A 
ATOM     14  C   UNL     1      24.073   5.143  48.626  0.00  0.00    +0.000 A 
ATOM     15  C   UNL     1      24.142   6.388  49.247  0.00  0.00    +0.000 A 
ATOM     16  C   UNL     1      24.088   6.532  50.634  0.00  0.00    +0.000 A 
ATOM     17  C   UNL     1      24.169   7.927  50.844  0.00  0.00    +0.000 A 
ATOM     18  N   UNL     1      24.315   8.620  49.715  0.00  0.00    +0.000 NA
ATOM     19  N   UNL     1      24.285   7.666  48.753  0.00  0.00    +0.000 N 
ATOM     20  C   UNL     1      24.010   5.382  51.454  0.00  0.00    +0.000 A 
BRANCH  19  21
ATOM     21  C   UNL     1      24.437   8.055  47.355  0.00  0.00    +0.000 C 
BRANCH  21  22
ATOM     22  C   UNL     1      25.884   7.973  46.940  0.00  0.00    +0.000 A 
ATOM     23  C   UNL     1      26.827   7.364  47.784  0.00  0.00    +0.000 A 
ATOM     24  C   UNL     1      28.187   7.388  47.466  0.00  0.00    +0.000 A 
ATOM     25  C   UNL     1      28.617   8.019  46.302  0.00  0.00    +0.000 A 
ATOM     26  C   UNL     1      27.683   8.602  45.456  0.00  0.00    +0.000 A 
ATOM     27  F   UNL     1      28.096   9.214  44.337  0.00  0.00    +0.000 F 
ATOM     28  C   UNL     1      26.326   8.584  45.759  0.00  0.00    +0.000 A 
ENDBRANCH  21  22
ENDBRANCH  19  21
ENDBRANCH   9  12
BRANCH   1  29
ATOM     29  C   UNL     1      26.019   0.575  53.504  0.00  0.00    +0.000 C 
BRANCH  29  30
ATOM     30  O   UNL     1      26.862  -0.428  54.069  0.00  0.00    +0.000 OA
BRANCH  30  31
ATOM     31  C   UNL     1      28.243  -0.082  54.228  0.00  0.00    +0.000 C 
BRANCH  31  32
ATOM     32  C   UNL     1      28.696   1.242  53.595  0.00  0.00    +0.000 C 
BRANCH  32  33
ATOM     33  N   UNL     1      29.417   2.122  54.517  0.00  0.00    +0.000 N 
ATOM     34  H   UNL     1      28.794   2.866  54.833  0.00  0.00    +0.000 HD
ATOM     35  H   UNL     1      30.219   2.530  54.038  0.00  0.00    +0.000 HD
ATOM     36  H   UNL     1      29.738   1.582  55.321  0.00  0.00    +0.000 HD
ENDBRANCH  32  33
ENDBRANCH  31  32
ENDBRANCH  30  31
ENDBRANCH  29  30
ENDBRANCH   1  29
TORSDOF 8
ENDMDL
MODEL 8
REMARK VINA RESULT:    -7.513      5.785     10.734
REMARK INTER + INTRA:         -11.961
REMARK INTER:                 -10.787
REMARK INTRA:                  -1.174
REMARK UNBOUND:                -1.154
REMARK  Name = 
REMARK  8 active torsions:
REMARK  status: ('A' for Active; 'I' for Inactive)
REMARK    1  A    between atoms: N_1  and  C_2
REMARK    2  A    between atoms: C_2  and  C_3
REMARK    3  A    between atoms: C_3  and  O_4
REMARK    4  A    between atoms: O_4  and  C_5
REMARK    5  A    between atoms: C_5  and  C_6
REMARK    6  A    between atoms: N_14  and  C_15
REMARK    7  A    between atoms: N_22  and  C_23
REMARK    8  A    between atoms: C_23  and  C_24
REMARK                            x       y       z     vdW  Elec       q    Type
REMARK                         _______ _______ _______ _____ _____    ______ ____
ROOT
ATOM      1  C   UNL     1      25.847   1.431  51.964  0.00  0.00    +0.000 A 
ATOM      2  C   UNL     1      27.024   0.710  52.347  0.00  0.00    +0.000 A 
ATOM      3  C   UNL     1      26.642  -0.299  53.190  0.00  0.00    +0.000 A 
ATOM      4  N   UNL     1      25.289  -0.226  53.346  0.00  0.00    +0.000 N 
ATOM      5  N   UNL     1      24.596  -0.956  54.227  0.00  0.00    +0.000 NA
ATOM      6  C   UNL     1      23.331  -0.700  54.222  0.00  0.00    +0.000 A 
ATOM      7  N   UNL     1      22.679   0.150  53.380  0.00  0.00    +0.000 NA
ATOM      8  C   UNL     1      23.326   0.876  52.509  0.00  0.00    +0.000 A 
ATOM      9  N   UNL     1      22.616   1.687  51.627  0.00  0.00    +0.000 N 
ATOM     10  C   UNL     1      24.769   0.741  52.523  0.00  0.00    +0.000 A 
ATOM     11  H   UNL     1      23.124   2.285  51.030  0.00  0.00    +0.000 HD
ENDROOT
BRANCH   9  12
ATOM     12  C   UNL     1      21.199   1.695  51.546  0.00  0.00    +0.000 A 
ATOM     13  C   UNL     1      20.504   0.586  51.039  0.00  0.00    +0.000 A 
ATOM     14  C   UNL     1      19.148   0.631  50.684  0.00  0.00    +0.000 A 
ATOM     15  C   UNL     1      18.493   1.850  50.849  0.00  0.00    +0.000 A 
ATOM     16  C   UNL     1      19.119   2.959  51.420  0.00  0.00    +0.000 A 
ATOM     17  C   UNL     1      18.122   3.960  51.420  0.00  0.00    +0.000 A 
ATOM     18  N   UNL     1      16.979   3.564  50.859  0.00  0.00    +0.000 NA
ATOM     19  N   UNL     1      17.222   2.273  50.527  0.00  0.00    +0.000 N 
ATOM     20  C   UNL     1      20.478   2.876  51.803  0.00  0.00    +0.000 A 
BRANCH  19  21
ATOM     21  C   UNL     1      16.181   1.497  49.860  0.00  0.00    +0.000 C 
BRANCH  21  22
ATOM     22  C   UNL     1      15.632   0.446  50.789  0.00  0.00    +0.000 A 
ATOM     23  C   UNL     1      15.605  -0.902  50.394  0.00  0.00    +0.000 A 
ATOM     24  C   UNL     1      14.990  -1.866  51.197  0.00  0.00    +0.000 A 
ATOM     25  C   UNL     1      14.399  -1.494  52.401  0.00  0.00    +0.000 A 
ATOM     26  C   UNL     1      14.445  -0.165  52.803  0.00  0.00    +0.000 A 
ATOM     27  F   UNL     1      13.872   0.195  53.960  0.00  0.00    +0.000 F 
ATOM     28  C   UNL     1      15.055   0.805  52.015  0.00  0.00    +0.000 A 
ENDBRANCH  21  22
ENDBRANCH  19  21
ENDBRANCH   9  12
BRANCH   1  29
ATOM     29  C   UNL     1      25.907   2.685  51.151  0.00  0.00    +0.000 C 
BRANCH  29  30
ATOM     30  O   UNL     1      25.185   3.800  51.671  0.00  0.00    +0.000 OA
BRANCH  30  31
ATOM     31  C   UNL     1      24.505   4.620  50.712  0.00  0.00    +0.000 C 
BRANCH  31  32
ATOM     32  C   UNL     1      23.620   5.743  51.275  0.00  0.00    +0.000 C 
BRANCH  32  33
ATOM     33  N   UNL     1      24.351   6.723  52.081  0.00  0.00    +0.000 N 
ATOM     34  H   UNL     1      25.354   6.576  51.965  0.00  0.00    +0.000 HD
ATOM     35  H   UNL     1      24.101   6.609  53.063  0.00  0.00    +0.000 HD
ATOM     36  H   UNL     1      24.106   7.665  51.775  0.00  0.00    +0.000 HD
ENDBRANCH  32  33
ENDBRANCH  31  32
ENDBRANCH  30  31
ENDBRANCH  29  30
ENDBRANCH   1  29
TORSDOF 8
ENDMDL
MODEL 9
REMARK VINA RESULT:    -7.483      2.640      3.430
REMARK INTER + INTRA:         -11.917
REMARK INTER:                 -11.495
REMARK INTRA:                  -0.422
REMARK UNBOUND:                -1.154
REMARK  Name = 
REMARK  8 active torsions:
REMARK  status: ('A' for Active; 'I' for Inactive)
REMARK    1  A    between atoms: N_1  and  C_2
REMARK    2  A    between atoms: C_2  and  C_3
REMARK    3  A    between atoms: C_3  and  O_4
REMARK    4  A    between atoms: O_4  and  C_5
REMARK    5  A    between atoms: C_5  and  C_6
REMARK    6  A    between atoms: N_14  and  C_15
REMARK    7  A    between atoms: N_22  and  C_23
REMARK    8  A    between atoms: C_23  and  C_24
REMARK                            x       y       z     vdW  Elec       q    Type
REMARK                         _______ _______ _______ _____ _____    ______ ____
ROOT
ATOM      1  C   UNL     1      22.760   0.423  53.215  0.00  0.00    +0.000 A 
ATOM      2  C   UNL     1      21.627  -0.349  53.632  0.00  0.00    +0.000 A 
ATOM      3  C   UNL     1      20.503   0.397  53.396  0.00  0.00    +0.000 A 
ATOM      4  N   UNL     1      20.894   1.589  52.862  0.00  0.00    +0.000 N 
ATOM      5  N   UNL     1      20.072   2.625  52.658  0.00  0.00    +0.000 NA
ATOM      6  C   UNL     1      20.666   3.662  52.170  0.00  0.00    +0.000 A 
ATOM      7  N   UNL     1      21.973   3.746  51.797  0.00  0.00    +0.000 NA
ATOM      8  C   UNL     1      22.801   2.754  51.982  0.00  0.00    +0.000 A 
ATOM      9  N   UNL     1      24.114   2.860  51.530  0.00  0.00    +0.000 N 
ATOM     10  C   UNL     1      22.247   1.585  52.634  0.00  0.00    +0.000 A 
ATOM     11  H   UNL     1      24.743   2.134  51.747  0.00  0.00    +0.000 HD
ENDROOT
BRANCH   9  12
ATOM     12  C   UNL     1      24.590   3.963  50.774  0.00  0.00    +0.000 A 
ATOM     13  C   UNL     1      25.643   3.804  49.859  0.00  0.00    +0.000 A 
ATOM     14  C   UNL     1      26.330   4.886  49.289  0.00  0.00    +0.000 A 
ATOM     15  C   UNL     1      25.927   6.163  49.676  0.00  0.00    +0.000 A 
ATOM     16  C   UNL     1      24.838   6.375  50.521  0.00  0.00    +0.000 A 
ATOM     17  C   UNL     1      24.759   7.781  50.642  0.00  0.00    +0.000 A 
ATOM     18  N   UNL     1      25.729   8.420  49.987  0.00  0.00    +0.000 NA
ATOM     19  N   UNL     1      26.423   7.417  49.396  0.00  0.00    +0.000 N 
ATOM     20  C   UNL     1      24.139   5.267  51.054  0.00  0.00    +0.000 A 
BRANCH  19  21
ATOM     21  C   UNL     1      27.596   7.738  48.589  0.00  0.00    +0.000 C 
BRANCH  21  22
ATOM     22  C   UNL     1      27.198   7.972  47.154  0.00  0.00    +0.000 A 
ATOM     23  C   UNL     1      28.181   8.179  46.173  0.00  0.00    +0.000 A 
ATOM     24  C   UNL     1      27.822   8.515  44.866  0.00  0.00    +0.000 A 
ATOM     25  C   UNL     1      26.478   8.647  44.526  0.00  0.00    +0.000 A 
ATOM     26  C   UNL     1      25.505   8.421  45.491  0.00  0.00    +0.000 A 
ATOM     27  F   UNL     1      24.211   8.552  45.166  0.00  0.00    +0.000 F 
ATOM     28  C   UNL     1      25.848   8.084  46.795  0.00  0.00    +0.000 A 
ENDBRANCH  21  22
ENDBRANCH  19  21
ENDBRANCH   9  12
BRANCH   1  29
ATOM     29  C   UNL     1      24.165  -0.031  53.451  0.00  0.00    +0.000 C 
BRANCH  29  30
ATOM     30  O   UNL     1      25.137   0.438  52.518  0.00  0.00    +0.000 OA
BRANCH  30  31
ATOM     31  C   UNL     1      26.510   0.251  52.881  0.00  0.00    +0.000 C 
BRANCH  31  32
ATOM     32  C   UNL     1      27.388   1.511  52.917  0.00  0.00    +0.000 C 
BRANCH  32  33
ATOM     33  N   UNL     1      26.934   2.520  53.876  0.00  0.00    +0.000 N 
ATOM     34  H   UNL     1      27.417   2.384  54.765  0.00  0.00    +0.000 HD
ATOM     35  H   UNL     1      25.929   2.426  54.017  0.00  0.00    +0.000 HD
ATOM     36  H   UNL     1      27.142   3.451  53.514  0.00  0.00    +0.000 HD
ENDBRANCH  32  33
ENDBRANCH  31  32
ENDBRANCH  30  31
ENDBRANCH  29  30
ENDBRANCH   1  29
TORSDOF 8
ENDMDL
