REMARK  Name = 
REMARK  5 active torsions:
REMARK  status: ('A' for Active; 'I' for Inactive)
REMARK    1  A    between atoms: C_2  and  C_3
REMARK    2  A    between atoms: C_32  and  O_33
REMARK    3  A    between atoms: O_33  and  C_34
REMARK    4  A    between atoms: C_34  and  C_35
REMARK    5  A    between atoms: C_35  and  C_36
REMARK                            x       y       z     vdW  Elec       q    Type
REMARK                         _______ _______ _______ _____ _____    ______ ____
ROOT
ATOM      1  C   UNL     1      -3.596  -0.228  -3.926  0.00  0.00    +0.000 C 
ATOM      2  O   UNL     1      -2.703   0.167  -3.233  0.00  0.00    +0.000 OA
ATOM      3  N   UNL     1      -5.068   0.070  -3.663  0.00  0.00    +0.000 N 
ATOM      4  C   UNL     1      -6.419  -0.707  -4.583  0.00  0.00    +0.000 C 
ATOM      5  C   UNL     1      -7.685  -0.398  -5.919  0.00  0.00    +0.000 C 
ATOM      6  C   UNL     1      -9.284  -0.992  -6.401  0.00  0.00    +0.000 C 
ATOM      7  C   UNL     1     -10.380  -1.090  -5.359  0.00  0.00    +0.000 C 
ATOM      8  C   UNL     1     -10.351   0.292  -4.740  0.00  0.00    +0.000 C 
ATOM      9  C   UNL     1     -11.651   1.075  -4.739  0.00  0.00    +0.000 C 
ATOM     10  C   UNL     1     -12.743   0.507  -3.842  0.00  0.00    +0.000 C 
ATOM     11  N   UNL     1     -12.222   0.153  -2.532  0.00  0.00    +0.000 N 
ATOM     12  C   UNL     1     -11.424  -0.930  -2.283  0.00  0.00    +0.000 A 
ATOM     13  C   UNL     1     -10.831  -0.789  -1.051  0.00  0.00    +0.000 A 
ATOM     14  C   UNL     1     -11.558   0.283  -0.411  0.00  0.00    +0.000 A 
ATOM     15  C   UNL     1     -11.611   0.818   0.865  0.00  0.00    +0.000 A 
ATOM     16  C   UNL     1     -12.494   1.881   1.179  0.00  0.00    +0.000 A 
ATOM     17  C   UNL     1     -13.286   2.446   0.189  0.00  0.00    +0.000 A 
ATOM     18  C   UNL     1     -13.237   1.965  -1.112  0.00  0.00    +0.000 A 
ATOM     19  C   UNL     1     -12.402   0.863  -1.372  0.00  0.00    +0.000 A 
ATOM     20  C   UNL     1      -9.937  -1.813  -0.568  0.00  0.00    +0.000 A 
ATOM     21  C   UNL     1     -10.373  -2.687   0.349  0.00  0.00    +0.000 A 
ATOM     22  C   UNL     1      -9.608  -3.840   0.502  0.00  0.00    +0.000 A 
ATOM     23  N   UNL     1      -8.413  -4.031  -0.038  0.00  0.00    +0.000 NA
ATOM     24  C   UNL     1      -7.963  -2.982  -0.709  0.00  0.00    +0.000 A 
ATOM     25  N   UNL     1      -8.709  -1.931  -1.115  0.00  0.00    +0.000 NA
ATOM     26  N   UNL     1      -6.588  -2.869  -0.717  0.00  0.00    +0.000 N 
ATOM     27  C   UNL     1      -5.985  -1.634  -0.580  0.00  0.00    +0.000 A 
ATOM     28  C   UNL     1      -5.163  -1.257  -1.605  0.00  0.00    +0.000 A 
ATOM     29  C   UNL     1      -5.223   0.052  -2.074  0.00  0.00    +0.000 A 
ATOM     30  C   UNL     1      -5.064   0.928  -0.911  0.00  0.00    +0.000 A 
ATOM     31  C   UNL     1      -5.746   0.571   0.298  0.00  0.00    +0.000 A 
ATOM     32  C   UNL     1      -6.391  -0.649   0.330  0.00  0.00    +0.000 A 
ATOM     33  F   UNL     1      -7.349  -0.882   1.253  0.00  0.00    +0.000 F 
ATOM     34  H   UNL     1      -6.033  -3.676  -0.820  0.00  0.00    +0.000 HD
ENDROOT
BRANCH   1  36
ATOM     35  C   UNL     1      -2.145  -1.815  -5.701  0.00  0.00    +0.000 C 
ATOM     36  C   UNL     1      -3.205  -1.211  -5.094  0.00  0.00    +0.000 C 
ENDBRANCH   1  36
BRANCH  30  37
ATOM     37  O   UNL     1      -4.144   1.924  -0.621  0.00  0.00    +0.000 OA
BRANCH  37  38
ATOM     38  C   UNL     1      -3.606   2.779  -1.614  0.00  0.00    +0.000 C 
BRANCH  38  39
ATOM     39  C   UNL     1      -3.889   4.229  -1.204  0.00  0.00    +0.000 C 
BRANCH  39  40
ATOM     40  C   UNL     1      -3.411   5.200  -2.255  0.00  0.00    +0.000 C 
ATOM     41  F   UNL     1      -3.761   6.463  -1.888  0.00  0.00    +0.000 F 
ENDBRANCH  39  40
ENDBRANCH  38  39
ENDBRANCH  37  38
ENDBRANCH  30  37
TORSDOF 5
