MODEL 1
REMARK VINA RESULT:    -9.154      0.000      0.000
REMARK INTER + INTRA:         -14.156
REMARK INTER:                 -12.900
REMARK INTRA:                  -1.256
REMARK UNBOUND:                -1.256
REMARK  Name = 
REMARK  9 active torsions:
REMARK  status: ('A' for Active; 'I' for Inactive)
REMARK    1  A    between atoms: C_1  and  C_2
REMARK    2  A    between atoms: C_2  and  N_3
REMARK    3  A    between atoms: N_6  and  C_7
REMARK    4  A    between atoms: C_7  and  C_8
REMARK    5  A    between atoms: C_11  and  C_12
REMARK    6  A    between atoms: C_15  and  N_16
REMARK    7  A    between atoms: N_16  and  C_17
REMARK    8  A    between atoms: C_17  and  C_18
REMARK    9  A    between atoms: C_17  and  C_19
REMARK                            x       y       z     vdW  Elec       q    Type
REMARK                         _______ _______ _______ _____ _____    ______ ____
ROOT
ATOM      1  C   UNL     1      25.724   2.647  50.853  0.00  0.00    +0.000 A 
ATOM      2  C   UNL     1      24.579   2.210  51.517  0.00  0.00    +0.000 A 
ATOM      3  C   UNL     1      24.917   1.086  52.325  0.00  0.00    +0.000 A 
ATOM      4  C   UNL     1      24.258   0.239  53.246  0.00  0.00    +0.000 A 
ATOM      5  N   UNL     1      24.989  -0.752  53.814  0.00  0.00    +0.000 NA
ATOM      6  C   UNL     1      26.293  -0.874  53.498  0.00  0.00    +0.000 A 
ATOM      7  N   UNL     1      27.014  -0.121  52.654  0.00  0.00    +0.000 NA
ATOM      8  C   UNL     1      26.261   0.839  52.101  0.00  0.00    +0.000 A 
ATOM      9  N   UNL     1      26.727   1.771  51.220  0.00  0.00    +0.000 N 
ATOM     10  H   UNL     1      27.654   1.815  50.891  0.00  0.00    +0.000 HD
ENDROOT
BRANCH   1  14
ATOM     11  C   UNL     1      26.669   6.322  48.849  0.00  0.00    +0.000 A 
ATOM     12  C   UNL     1      25.473   6.181  49.565  0.00  0.00    +0.000 A 
ATOM     13  C   UNL     1      25.140   4.961  50.159  0.00  0.00    +0.000 A 
ATOM     14  C   UNL     1      25.979   3.845  50.040  0.00  0.00    +0.000 A 
ATOM     15  C   UNL     1      27.106   3.953  49.213  0.00  0.00    +0.000 A 
ATOM     16  C   UNL     1      27.455   5.182  48.633  0.00  0.00    +0.000 A 
BRANCH  11  17
ATOM     17  C   UNL     1      27.160   7.701  48.439  0.00  0.00    +0.000 C 
BRANCH  17  21
ATOM     18  N   UNL     1      29.569  10.385  46.988  0.00  0.00    +0.000 N 
ATOM     19  C   UNL     1      29.491   9.989  48.407  0.00  0.00    +0.000 C 
ATOM     20  C   UNL     1      29.507   8.463  48.675  0.00  0.00    +0.000 C 
ATOM     21  N   UNL     1      28.533   7.662  47.903  0.00  0.00    +0.000 N 
ATOM     22  C   UNL     1      28.594   8.069  46.485  0.00  0.00    +0.000 C 
ATOM     23  C   UNL     1      28.581   9.595  46.222  0.00  0.00    +0.000 C 
ATOM     24  H   UNL     1      29.347  11.378  46.926  0.00  0.00    +0.000 HD
ATOM     25  H   UNL     1      28.802   6.682  47.990  0.00  0.00    +0.000 HD
BRANCH  18  27
ATOM     26  C   UNL     1      30.918  10.252  44.886  0.00  0.00    +0.000 C 
ATOM     27  C   UNL     1      30.918  10.264  46.415  0.00  0.00    +0.000 C 
ENDBRANCH  18  27
ENDBRANCH  17  21
ENDBRANCH  11  17
ENDBRANCH   1  14
BRANCH   4  28
ATOM     28  N   UNL     1      22.930   0.410  53.601  0.00  0.00    +0.000 N 
ATOM     29  H   UNL     1      22.643   1.224  54.075  0.00  0.00    +0.000 HD
BRANCH  28  30
ATOM     30  C   UNL     1      21.959  -0.626  53.266  0.00  0.00    +0.000 C 
ATOM     31  C   UNL     1      21.414  -1.201  54.581  0.00  0.00    +0.000 C 
BRANCH  30  32
ATOM     32  C   UNL     1      20.904  -0.062  52.318  0.00  0.00    +0.000 A 
ATOM     33  C   UNL     1      21.312   0.472  51.080  0.00  0.00    +0.000 A 
ATOM     34  C   UNL     1      20.383   0.922  50.139  0.00  0.00    +0.000 A 
ATOM     35  C   UNL     1      19.020   0.847  50.413  0.00  0.00    +0.000 A 
ATOM     36  C   UNL     1      18.591   0.332  51.634  0.00  0.00    +0.000 A 
ATOM     37  C   UNL     1      19.522  -0.115  52.576  0.00  0.00    +0.000 A 
ENDBRANCH  30  32
ENDBRANCH  28  30
ENDBRANCH   4  28
TORSDOF 7
ENDMDL
MODEL 2
REMARK VINA RESULT:    -8.979      3.089     11.464
REMARK INTER + INTRA:         -13.910
REMARK INTER:                 -12.790
REMARK INTRA:                  -1.119
REMARK UNBOUND:                -1.256
REMARK  Name = 
REMARK  9 active torsions:
REMARK  status: ('A' for Active; 'I' for Inactive)
REMARK    1  A    between atoms: C_1  and  C_2
REMARK    2  A    between atoms: C_2  and  N_3
REMARK    3  A    between atoms: N_6  and  C_7
REMARK    4  A    between atoms: C_7  and  C_8
REMARK    5  A    between atoms: C_11  and  C_12
REMARK    6  A    between atoms: C_15  and  N_16
REMARK    7  A    between atoms: N_16  and  C_17
REMARK    8  A    between atoms: C_17  and  C_18
REMARK    9  A    between atoms: C_17  and  C_19
REMARK                            x       y       z     vdW  Elec       q    Type
REMARK                         _______ _______ _______ _____ _____    ______ ____
ROOT
ATOM      1  C   UNL     1      22.863   0.715  52.547  0.00  0.00    +0.000 A 
ATOM      2  C   UNL     1      23.311   1.913  51.995  0.00  0.00    +0.000 A 
ATOM      3  C   UNL     1      24.732   1.961  52.090  0.00  0.00    +0.000 A 
ATOM      4  C   UNL     1      25.767   2.838  51.691  0.00  0.00    +0.000 A 
ATOM      5  N   UNL     1      27.039   2.480  51.995  0.00  0.00    +0.000 NA
ATOM      6  C   UNL     1      27.263   1.315  52.634  0.00  0.00    +0.000 A 
ATOM      7  N   UNL     1      26.361   0.408  53.041  0.00  0.00    +0.000 NA
ATOM      8  C   UNL     1      25.115   0.798  52.737  0.00  0.00    +0.000 A 
ATOM      9  N   UNL     1      23.994   0.069  53.008  0.00  0.00    +0.000 N 
ATOM     10  H   UNL     1      23.990  -0.801  53.469  0.00  0.00    +0.000 HD
ENDROOT
BRANCH   1  14
ATOM     11  C   UNL     1      18.848  -0.769  52.846  0.00  0.00    +0.000 A 
ATOM     12  C   UNL     1      19.814  -1.116  53.798  0.00  0.00    +0.000 A 
ATOM     13  C   UNL     1      21.136  -0.684  53.658  0.00  0.00    +0.000 A 
ATOM     14  C   UNL     1      21.534   0.087  52.559  0.00  0.00    +0.000 A 
ATOM     15  C   UNL     1      20.595   0.320  51.544  0.00  0.00    +0.000 A 
ATOM     16  C   UNL     1      19.262  -0.092  51.690  0.00  0.00    +0.000 A 
BRANCH  11  17
ATOM     17  C   UNL     1      17.373  -1.001  53.130  0.00  0.00    +0.000 C 
BRANCH  17  21
ATOM     18  N   UNL     1      13.534  -0.601  52.661  0.00  0.00    +0.000 N 
ATOM     19  C   UNL     1      14.447   0.454  53.141  0.00  0.00    +0.000 C 
ATOM     20  C   UNL     1      15.730   0.658  52.297  0.00  0.00    +0.000 C 
ATOM     21  N   UNL     1      16.518  -0.560  52.012  0.00  0.00    +0.000 N 
ATOM     22  C   UNL     1      15.605  -1.625  51.550  0.00  0.00    +0.000 C 
ATOM     23  C   UNL     1      14.322  -1.824  52.395  0.00  0.00    +0.000 C 
ATOM     24  H   UNL     1      12.848  -0.779  53.394  0.00  0.00    +0.000 HD
ATOM     25  H   UNL     1      17.181  -0.334  51.272  0.00  0.00    +0.000 HD
BRANCH  18  27
ATOM     26  C   UNL     1      12.155   1.202  51.612  0.00  0.00    +0.000 C 
ATOM     27  C   UNL     1      12.740  -0.205  51.489  0.00  0.00    +0.000 C 
ENDBRANCH  18  27
ENDBRANCH  17  21
ENDBRANCH  11  17
ENDBRANCH   1  14
BRANCH   4  28
ATOM     28  N   UNL     1      25.526   4.007  50.988  0.00  0.00    +0.000 N 
ATOM     29  H   UNL     1      25.403   4.859  51.467  0.00  0.00    +0.000 HD
BRANCH  28  30
ATOM     30  C   UNL     1      25.456   3.967  49.531  0.00  0.00    +0.000 C 
ATOM     31  C   UNL     1      23.989   4.163  49.127  0.00  0.00    +0.000 C 
BRANCH  30  32
ATOM     32  C   UNL     1      26.435   4.977  48.937  0.00  0.00    +0.000 A 
ATOM     33  C   UNL     1      25.995   6.291  48.689  0.00  0.00    +0.000 A 
ATOM     34  C   UNL     1      26.870   7.278  48.227  0.00  0.00    +0.000 A 
ATOM     35  C   UNL     1      28.210   6.972  48.004  0.00  0.00    +0.000 A 
ATOM     36  C   UNL     1      28.668   5.676  48.232  0.00  0.00    +0.000 A 
ATOM     37  C   UNL     1      27.790   4.690  48.691  0.00  0.00    +0.000 A 
ENDBRANCH  30  32
ENDBRANCH  28  30
ENDBRANCH   4  28
TORSDOF 7
ENDMDL
MODEL 3
REMARK VINA RESULT:    -8.946      4.571     10.936
REMARK INTER + INTRA:         -13.863
REMARK INTER:                 -12.586
REMARK INTRA:                  -1.277
REMARK UNBOUND:                -1.256
REMARK  Name = 
REMARK  9 active torsions:
REMARK  status: ('A' for Active; 'I' for Inactive)
REMARK    1  A    between atoms: C_1  and  C_2
REMARK    2  A    between atoms: C_2  and  N_3
REMARK    3  A    between atoms: N_6  and  C_7
REMARK    4  A    between atoms: C_7  and  C_8
REMARK    5  A    between atoms: C_11  and  C_12
REMARK    6  A    between atoms: C_15  and  N_16
REMARK    7  A    between atoms: N_16  and  C_17
REMARK    8  A    between atoms: C_17  and  C_18
REMARK    9  A    between atoms: C_17  and  C_19
REMARK                            x       y       z     vdW  Elec       q    Type
REMARK                         _______ _______ _______ _____ _____    ______ ____
ROOT
ATOM      1  C   UNL     1      20.213   0.016  52.537  0.00  0.00    +0.000 A 
ATOM      2  C   UNL     1      21.547   0.345  52.307  0.00  0.00    +0.000 A 
ATOM      3  C   UNL     1      22.351  -0.260  53.317  0.00  0.00    +0.000 A 
ATOM      4  C   UNL     1      23.728  -0.358  53.622  0.00  0.00    +0.000 A 
ATOM      5  N   UNL     1      24.072  -1.063  54.727  0.00  0.00    +0.000 NA
ATOM      6  C   UNL     1      23.108  -1.648  55.465  0.00  0.00    +0.000 A 
ATOM      7  N   UNL     1      21.782  -1.629  55.258  0.00  0.00    +0.000 NA
ATOM      8  C   UNL     1      21.475  -0.915  54.166  0.00  0.00    +0.000 A 
ATOM      9  N   UNL     1      20.207  -0.738  53.694  0.00  0.00    +0.000 N 
ATOM     10  H   UNL     1      19.396  -1.101  54.121  0.00  0.00    +0.000 HD
ENDROOT
BRANCH   1  14
ATOM     11  C   UNL     1      16.540   0.906  50.504  0.00  0.00    +0.000 A 
ATOM     12  C   UNL     1      16.622  -0.166  51.402  0.00  0.00    +0.000 A 
ATOM     13  C   UNL     1      17.838  -0.492  52.010  0.00  0.00    +0.000 A 
ATOM     14  C   UNL     1      19.005   0.228  51.726  0.00  0.00    +0.000 A 
ATOM     15  C   UNL     1      18.946   1.213  50.729  0.00  0.00    +0.000 A 
ATOM     16  C   UNL     1      17.724   1.557  50.133  0.00  0.00    +0.000 A 
BRANCH  11  17
ATOM     17  C   UNL     1      15.185   1.429  50.056  0.00  0.00    +0.000 C 
BRANCH  17  21
ATOM     18  N   UNL     1      12.542   2.809  52.552  0.00  0.00    +0.000 N 
ATOM     19  C   UNL     1      13.880   2.306  52.920  0.00  0.00    +0.000 C 
ATOM     20  C   UNL     1      15.055   2.861  52.076  0.00  0.00    +0.000 C 
ATOM     21  N   UNL     1      14.898   2.766  50.609  0.00  0.00    +0.000 N 
ATOM     22  C   UNL     1      13.553   3.249  50.238  0.00  0.00    +0.000 C 
ATOM     23  C   UNL     1      12.381   2.695  51.086  0.00  0.00    +0.000 C 
ATOM     24  H   UNL     1      11.849   2.231  53.026  0.00  0.00    +0.000 HD
ATOM     25  H   UNL     1      15.606   3.364  50.183  0.00  0.00    +0.000 HD
BRANCH  18  27
ATOM     26  C   UNL     1      12.261   4.295  54.543  0.00  0.00    +0.000 C 
ATOM     27  C   UNL     1      12.277   4.178  53.019  0.00  0.00    +0.000 C 
ENDBRANCH  18  27
ENDBRANCH  17  21
ENDBRANCH  11  17
ENDBRANCH   1  14
BRANCH   4  28
ATOM     28  N   UNL     1      24.712   0.204  52.825  0.00  0.00    +0.000 N 
ATOM     29  H   UNL     1      25.163  -0.337  52.137  0.00  0.00    +0.000 HD
BRANCH  28  30
ATOM     30  C   UNL     1      25.074   1.605  53.012  0.00  0.00    +0.000 C 
ATOM     31  C   UNL     1      26.316   1.651  53.914  0.00  0.00    +0.000 C 
BRANCH  30  32
ATOM     32  C   UNL     1      25.231   2.286  51.655  0.00  0.00    +0.000 A 
ATOM     33  C   UNL     1      24.078   2.619  50.919  0.00  0.00    +0.000 A 
ATOM     34  C   UNL     1      24.158   3.320  49.714  0.00  0.00    +0.000 A 
ATOM     35  C   UNL     1      25.400   3.708  49.215  0.00  0.00    +0.000 A 
ATOM     36  C   UNL     1      26.557   3.382  49.919  0.00  0.00    +0.000 A 
ATOM     37  C   UNL     1      26.474   2.678  51.124  0.00  0.00    +0.000 A 
ENDBRANCH  30  32
ENDBRANCH  28  30
ENDBRANCH   4  28
TORSDOF 7
ENDMDL
MODEL 4
REMARK VINA RESULT:    -8.909      5.858     11.017
REMARK INTER + INTRA:         -13.810
REMARK INTER:                 -12.707
REMARK INTRA:                  -1.103
REMARK UNBOUND:                -1.256
REMARK  Name = 
REMARK  9 active torsions:
REMARK  status: ('A' for Active; 'I' for Inactive)
REMARK    1  A    between atoms: C_1  and  C_2
REMARK    2  A    between atoms: C_2  and  N_3
REMARK    3  A    between atoms: N_6  and  C_7
REMARK    4  A    between atoms: C_7  and  C_8
REMARK    5  A    between atoms: C_11  and  C_12
REMARK    6  A    between atoms: C_15  and  N_16
REMARK    7  A    between atoms: N_16  and  C_17
REMARK    8  A    between atoms: C_17  and  C_18
REMARK    9  A    between atoms: C_17  and  C_19
REMARK                            x       y       z     vdW  Elec       q    Type
REMARK                         _______ _______ _______ _____ _____    ______ ____
ROOT
ATOM      1  C   UNL     1      20.569   0.662  52.757  0.00  0.00    +0.000 A 
ATOM      2  C   UNL     1      21.924   0.975  52.847  0.00  0.00    +0.000 A 
ATOM      3  C   UNL     1      22.557   0.035  53.711  0.00  0.00    +0.000 A 
ATOM      4  C   UNL     1      23.869  -0.231  54.167  0.00  0.00    +0.000 A 
ATOM      5  N   UNL     1      24.033  -1.272  55.019  0.00  0.00    +0.000 NA
ATOM      6  C   UNL     1      22.963  -2.011  55.375  0.00  0.00    +0.000 A 
ATOM      7  N   UNL     1      21.686  -1.854  54.991  0.00  0.00    +0.000 NA
ATOM      8  C   UNL     1      21.557  -0.811  54.160  0.00  0.00    +0.000 A 
ATOM      9  N   UNL     1      20.379  -0.423  53.590  0.00  0.00    +0.000 N 
ATOM     10  H   UNL     1      19.510  -0.859  53.750  0.00  0.00    +0.000 HD
ENDROOT
BRANCH   1  14
ATOM     11  C   UNL     1      17.178   2.131  50.576  0.00  0.00    +0.000 A 
ATOM     12  C   UNL     1      17.503   0.769  50.566  0.00  0.00    +0.000 A 
ATOM     13  C   UNL     1      18.647   0.306  51.223  0.00  0.00    +0.000 A 
ATOM     14  C   UNL     1      19.505   1.189  51.890  0.00  0.00    +0.000 A 
ATOM     15  C   UNL     1      19.248   2.564  51.785  0.00  0.00    +0.000 A 
ATOM     16  C   UNL     1      18.090   3.030  51.146  0.00  0.00    +0.000 A 
BRANCH  11  17
ATOM     17  C   UNL     1      15.811   2.597  50.103  0.00  0.00    +0.000 C 
BRANCH  17  21
ATOM     18  N   UNL     1      13.155   4.333  52.350  0.00  0.00    +0.000 N 
ATOM     19  C   UNL     1      12.965   3.973  50.932  0.00  0.00    +0.000 C 
ATOM     20  C   UNL     1      13.374   2.527  50.552  0.00  0.00    +0.000 C 
ATOM     21  N   UNL     1      14.727   2.106  50.974  0.00  0.00    +0.000 N 
ATOM     22  C   UNL     1      14.928   2.482  52.387  0.00  0.00    +0.000 C 
ATOM     23  C   UNL     1      14.516   3.927  52.764  0.00  0.00    +0.000 C 
ATOM     24  H   UNL     1      13.050   5.344  52.433  0.00  0.00    +0.000 HD
ATOM     25  H   UNL     1      14.778   1.092  50.879  0.00  0.00    +0.000 HD
BRANCH  18  27
ATOM     26  C   UNL     1      12.458   3.968  54.724  0.00  0.00    +0.000 C 
ATOM     27  C   UNL     1      12.130   3.773  53.244  0.00  0.00    +0.000 C 
ENDBRANCH  18  27
ENDBRANCH  17  21
ENDBRANCH  11  17
ENDBRANCH   1  14
BRANCH   4  28
ATOM     28  N   UNL     1      24.968   0.503  53.751  0.00  0.00    +0.000 N 
ATOM     29  H   UNL     1      25.258   1.295  54.260  0.00  0.00    +0.000 HD
BRANCH  28  30
ATOM     30  C   UNL     1      25.693   0.094  52.553  0.00  0.00    +0.000 C 
ATOM     31  C   UNL     1      25.767   1.305  51.613  0.00  0.00    +0.000 C 
BRANCH  30  32
ATOM     32  C   UNL     1      27.040  -0.510  52.942  0.00  0.00    +0.000 A 
ATOM     33  C   UNL     1      27.267  -1.881  52.715  0.00  0.00    +0.000 A 
ATOM     34  C   UNL     1      28.509  -2.467  52.971  0.00  0.00    +0.000 A 
ATOM     35  C   UNL     1      29.557  -1.692  53.461  0.00  0.00    +0.000 A 
ATOM     36  C   UNL     1      29.355  -0.335  53.704  0.00  0.00    +0.000 A 
ATOM     37  C   UNL     1      28.111   0.249  53.450  0.00  0.00    +0.000 A 
ENDBRANCH  30  32
ENDBRANCH  28  30
ENDBRANCH   4  28
TORSDOF 7
ENDMDL
MODEL 5
REMARK VINA RESULT:    -8.864      5.606     11.642
REMARK INTER + INTRA:         -13.748
REMARK INTER:                 -12.976
REMARK INTRA:                  -0.772
REMARK UNBOUND:                -1.256
REMARK  Name = 
REMARK  9 active torsions:
REMARK  status: ('A' for Active; 'I' for Inactive)
REMARK    1  A    between atoms: C_1  and  C_2
REMARK    2  A    between atoms: C_2  and  N_3
REMARK    3  A    between atoms: N_6  and  C_7
REMARK    4  A    between atoms: C_7  and  C_8
REMARK    5  A    between atoms: C_11  and  C_12
REMARK    6  A    between atoms: C_15  and  N_16
REMARK    7  A    between atoms: N_16  and  C_17
REMARK    8  A    between atoms: C_17  and  C_18
REMARK    9  A    between atoms: C_17  and  C_19
REMARK                            x       y       z     vdW  Elec       q    Type
REMARK                         _______ _______ _______ _____ _____    ______ ____
ROOT
ATOM      1  C   UNL     1      19.587  -0.425  52.839  0.00  0.00    +0.000 A 
ATOM      2  C   UNL     1      20.692   0.411  52.689  0.00  0.00    +0.000 A 
ATOM      3  C   UNL     1      21.749  -0.070  53.515  0.00  0.00    +0.000 A 
ATOM      4  C   UNL     1      23.094   0.275  53.779  0.00  0.00    +0.000 A 
ATOM      5  N   UNL     1      23.768  -0.486  54.676  0.00  0.00    +0.000 NA
ATOM      6  C   UNL     1      23.146  -1.533  55.254  0.00  0.00    +0.000 A 
ATOM      7  N   UNL     1      21.886  -1.953  55.065  0.00  0.00    +0.000 NA
ATOM      8  C   UNL     1      21.245  -1.173  54.184  0.00  0.00    +0.000 A 
ATOM      9  N   UNL     1      19.957  -1.370  53.777  0.00  0.00    +0.000 N 
ATOM     10  H   UNL     1      19.370  -2.089  54.106  0.00  0.00    +0.000 HD
ENDROOT
BRANCH   1  14
ATOM     11  C   UNL     1      15.736  -0.251  50.955  0.00  0.00    +0.000 A 
ATOM     12  C   UNL     1      15.922  -0.970  52.142  0.00  0.00    +0.000 A 
ATOM     13  C   UNL     1      17.193  -1.078  52.715  0.00  0.00    +0.000 A 
ATOM     14  C   UNL     1      18.312  -0.490  52.111  0.00  0.00    +0.000 A 
ATOM     15  C   UNL     1      18.143   0.114  50.857  0.00  0.00    +0.000 A 
ATOM     16  C   UNL     1      16.866   0.244  50.290  0.00  0.00    +0.000 A 
BRANCH  11  17
ATOM     17  C   UNL     1      14.334   0.096  50.481  0.00  0.00    +0.000 C 
BRANCH  17  21
ATOM     18  N   UNL     1      12.551   2.303  53.139  0.00  0.00    +0.000 N 
ATOM     19  C   UNL     1      13.994   1.994  53.118  0.00  0.00    +0.000 C 
ATOM     20  C   UNL     1      14.698   2.193  51.752  0.00  0.00    +0.000 C 
ATOM     21  N   UNL     1      14.054   1.540  50.592  0.00  0.00    +0.000 N 
ATOM     22  C   UNL     1      12.606   1.830  50.621  0.00  0.00    +0.000 C 
ATOM     23  C   UNL     1      11.907   1.633  51.989  0.00  0.00    +0.000 C 
ATOM     24  H   UNL     1      12.167   1.945  54.013  0.00  0.00    +0.000 HD
ATOM     25  H   UNL     1      14.465   1.935  49.748  0.00  0.00    +0.000 HD
BRANCH  18  27
ATOM     26  C   UNL     1      12.046   4.290  54.571  0.00  0.00    +0.000 C 
ATOM     27  C   UNL     1      12.256   3.744  53.159  0.00  0.00    +0.000 C 
ENDBRANCH  18  27
ENDBRANCH  17  21
ENDBRANCH  11  17
ENDBRANCH   1  14
BRANCH   4  28
ATOM     28  N   UNL     1      23.737   1.321  53.138  0.00  0.00    +0.000 N 
ATOM     29  H   UNL     1      23.614   2.247  53.451  0.00  0.00    +0.000 HD
BRANCH  28  30
ATOM     30  C   UNL     1      24.600   1.041  51.995  0.00  0.00    +0.000 C 
ATOM     31  C   UNL     1      24.404   2.168  50.972  0.00  0.00    +0.000 C 
BRANCH  30  32
ATOM     32  C   UNL     1      26.037   0.835  52.468  0.00  0.00    +0.000 A 
ATOM     33  C   UNL     1      26.779   1.948  52.906  0.00  0.00    +0.000 A 
ATOM     34  C   UNL     1      28.067   1.807  53.430  0.00  0.00    +0.000 A 
ATOM     35  C   UNL     1      28.643   0.542  53.529  0.00  0.00    +0.000 A 
ATOM     36  C   UNL     1      27.933  -0.574  53.093  0.00  0.00    +0.000 A 
ATOM     37  C   UNL     1      26.646  -0.429  52.567  0.00  0.00    +0.000 A 
ENDBRANCH  30  32
ENDBRANCH  28  30
ENDBRANCH   4  28
TORSDOF 7
ENDMDL
MODEL 6
REMARK VINA RESULT:    -8.824      3.680     11.307
REMARK INTER + INTRA:         -13.691
REMARK INTER:                 -12.572
REMARK INTRA:                  -1.119
REMARK UNBOUND:                -1.256
REMARK  Name = 
REMARK  9 active torsions:
REMARK  status: ('A' for Active; 'I' for Inactive)
REMARK    1  A    between atoms: C_1  and  C_2
REMARK    2  A    between atoms: C_2  and  N_3
REMARK    3  A    between atoms: N_6  and  C_7
REMARK    4  A    between atoms: C_7  and  C_8
REMARK    5  A    between atoms: C_11  and  C_12
REMARK    6  A    between atoms: C_15  and  N_16
REMARK    7  A    between atoms: N_16  and  C_17
REMARK    8  A    between atoms: C_17  and  C_18
REMARK    9  A    between atoms: C_17  and  C_19
REMARK                            x       y       z     vdW  Elec       q    Type
REMARK                         _______ _______ _______ _____ _____    ______ ____
ROOT
ATOM      1  C   UNL     1      21.273   0.513  52.594  0.00  0.00    +0.000 A 
ATOM      2  C   UNL     1      21.925   1.742  52.513  0.00  0.00    +0.000 A 
ATOM      3  C   UNL     1      23.311   1.545  52.776  0.00  0.00    +0.000 A 
ATOM      4  C   UNL     1      24.482   2.338  52.801  0.00  0.00    +0.000 A 
ATOM      5  N   UNL     1      25.647   1.719  53.112  0.00  0.00    +0.000 NA
ATOM      6  C   UNL     1      25.646   0.394  53.361  0.00  0.00    +0.000 A 
ATOM      7  N   UNL     1      24.601  -0.448  53.350  0.00  0.00    +0.000 NA
ATOM      8  C   UNL     1      23.465   0.197  53.052  0.00  0.00    +0.000 A 
ATOM      9  N   UNL     1      22.244  -0.404  52.945  0.00  0.00    +0.000 N 
ATOM     10  H   UNL     1      22.078  -1.363  53.097  0.00  0.00    +0.000 HD
ENDROOT
BRANCH   1  14
ATOM     11  C   UNL     1      17.121  -0.290  51.860  0.00  0.00    +0.000 A 
ATOM     12  C   UNL     1      17.774  -0.843  52.969  0.00  0.00    +0.000 A 
ATOM     13  C   UNL     1      19.142  -0.632  53.166  0.00  0.00    +0.000 A 
ATOM     14  C   UNL     1      19.898   0.118  52.255  0.00  0.00    +0.000 A 
ATOM     15  C   UNL     1      19.269   0.556  51.081  0.00  0.00    +0.000 A 
ATOM     16  C   UNL     1      17.893   0.366  50.890  0.00  0.00    +0.000 A 
BRANCH  11  17
ATOM     17  C   UNL     1      15.603  -0.286  51.787  0.00  0.00    +0.000 C 
BRANCH  17  21
ATOM     18  N   UNL     1      12.654   2.229  52.087  0.00  0.00    +0.000 N 
ATOM     19  C   UNL     1      12.541   0.764  52.230  0.00  0.00    +0.000 C 
ATOM     20  C   UNL     1      13.583   0.106  53.170  0.00  0.00    +0.000 C 
ATOM     21  N   UNL     1      14.997   0.452  52.910  0.00  0.00    +0.000 N 
ATOM     22  C   UNL     1      15.110   1.915  52.746  0.00  0.00    +0.000 C 
ATOM     23  C   UNL     1      14.066   2.570  51.809  0.00  0.00    +0.000 C 
ATOM     24  H   UNL     1      12.064   2.513  51.305  0.00  0.00    +0.000 HD
ATOM     25  H   UNL     1      15.541   0.156  53.720  0.00  0.00    +0.000 HD
BRANCH  18  27
ATOM     26  C   UNL     1      12.466   4.467  53.185  0.00  0.00    +0.000 C 
ATOM     27  C   UNL     1      12.134   2.976  53.242  0.00  0.00    +0.000 C 
ENDBRANCH  18  27
ENDBRANCH  17  21
ENDBRANCH  11  17
ENDBRANCH   1  14
BRANCH   4  28
ATOM     28  N   UNL     1      24.477   3.688  52.491  0.00  0.00    +0.000 N 
ATOM     29  H   UNL     1      24.798   4.349  53.146  0.00  0.00    +0.000 HD
BRANCH  28  30
ATOM     30  C   UNL     1      23.992   4.123  51.185  0.00  0.00    +0.000 C 
ATOM     31  C   UNL     1      22.849   5.121  51.418  0.00  0.00    +0.000 C 
BRANCH  30  32
ATOM     32  C   UNL     1      25.155   4.650  50.349  0.00  0.00    +0.000 A 
ATOM     33  C   UNL     1      26.128   3.746  49.882  0.00  0.00    +0.000 A 
ATOM     34  C   UNL     1      27.165   4.159  49.042  0.00  0.00    +0.000 A 
ATOM     35  C   UNL     1      27.252   5.491  48.646  0.00  0.00    +0.000 A 
ATOM     36  C   UNL     1      26.307   6.408  49.102  0.00  0.00    +0.000 A 
ATOM     37  C   UNL     1      25.272   5.993  49.945  0.00  0.00    +0.000 A 
ENDBRANCH  30  32
ENDBRANCH  28  30
ENDBRANCH   4  28
TORSDOF 7
ENDMDL
MODEL 7
REMARK VINA RESULT:    -8.613      5.608     11.591
REMARK INTER + INTRA:         -13.394
REMARK INTER:                 -12.191
REMARK INTRA:                  -1.203
REMARK UNBOUND:                -1.256
REMARK  Name = 
REMARK  9 active torsions:
REMARK  status: ('A' for Active; 'I' for Inactive)
REMARK    1  A    between atoms: C_1  and  C_2
REMARK    2  A    between atoms: C_2  and  N_3
REMARK    3  A    between atoms: N_6  and  C_7
REMARK    4  A    between atoms: C_7  and  C_8
REMARK    5  A    between atoms: C_11  and  C_12
REMARK    6  A    between atoms: C_15  and  N_16
REMARK    7  A    between atoms: N_16  and  C_17
REMARK    8  A    between atoms: C_17  and  C_18
REMARK    9  A    between atoms: C_17  and  C_19
REMARK                            x       y       z     vdW  Elec       q    Type
REMARK                         _______ _______ _______ _____ _____    ______ ____
ROOT
ATOM      1  C   UNL     1      19.658  -0.178  52.748  0.00  0.00    +0.000 A 
ATOM      2  C   UNL     1      20.820   0.586  52.670  0.00  0.00    +0.000 A 
ATOM      3  C   UNL     1      21.807   0.013  53.524  0.00  0.00    +0.000 A 
ATOM      4  C   UNL     1      23.159   0.260  53.853  0.00  0.00    +0.000 A 
ATOM      5  N   UNL     1      23.743  -0.570  54.752  0.00  0.00    +0.000 NA
ATOM      6  C   UNL     1      23.030  -1.590  55.270  0.00  0.00    +0.000 A 
ATOM      7  N   UNL     1      21.754  -1.920  55.016  0.00  0.00    +0.000 NA
ATOM      8  C   UNL     1      21.204  -1.074  54.135  0.00  0.00    +0.000 A 
ATOM      9  N   UNL     1      19.925  -1.173  53.669  0.00  0.00    +0.000 N 
ATOM     10  H   UNL     1      19.279  -1.861  53.950  0.00  0.00    +0.000 HD
ENDROOT
BRANCH   1  14
ATOM     11  C   UNL     1      16.201  -0.398  50.215  0.00  0.00    +0.000 A 
ATOM     12  C   UNL     1      17.286   0.421  49.879  0.00  0.00    +0.000 A 
ATOM     13  C   UNL     1      18.381   0.539  50.741  0.00  0.00    +0.000 A 
ATOM     14  C   UNL     1      18.413  -0.138  51.966  0.00  0.00    +0.000 A 
ATOM     15  C   UNL     1      17.270  -0.849  52.357  0.00  0.00    +0.000 A 
ATOM     16  C   UNL     1      16.179  -0.989  51.486  0.00  0.00    +0.000 A 
BRANCH  11  17
ATOM     17  C   UNL     1      15.148  -0.741  49.174  0.00  0.00    +0.000 C 
BRANCH  17  21
ATOM     18  N   UNL     1      13.821  -2.317  45.877  0.00  0.00    +0.000 N 
ATOM     19  C   UNL     1      13.761  -0.883  46.219  0.00  0.00    +0.000 C 
ATOM     20  C   UNL     1      15.083  -0.267  46.742  0.00  0.00    +0.000 C 
ATOM     21  N   UNL     1      15.742  -0.994  47.848  0.00  0.00    +0.000 N 
ATOM     22  C   UNL     1      15.786  -2.432  47.518  0.00  0.00    +0.000 C 
ATOM     23  C   UNL     1      14.463  -3.043  46.994  0.00  0.00    +0.000 C 
ATOM     24  H   UNL     1      12.866  -2.648  45.747  0.00  0.00    +0.000 HD
ATOM     25  H   UNL     1      16.691  -0.633  47.933  0.00  0.00    +0.000 HD
BRANCH  18  27
ATOM     26  C   UNL     1      14.660  -4.084  44.319  0.00  0.00    +0.000 C 
ATOM     27  C   UNL     1      14.493  -2.591  44.598  0.00  0.00    +0.000 C 
ENDBRANCH  18  27
ENDBRANCH  17  21
ENDBRANCH  11  17
ENDBRANCH   1  14
BRANCH   4  28
ATOM     28  N   UNL     1      23.896   1.280  53.273  0.00  0.00    +0.000 N 
ATOM     29  H   UNL     1      23.866   2.190  53.649  0.00  0.00    +0.000 HD
BRANCH  28  30
ATOM     30  C   UNL     1      24.716   0.995  52.101  0.00  0.00    +0.000 C 
ATOM     31  C   UNL     1      24.468   2.108  51.073  0.00  0.00    +0.000 C 
BRANCH  30  32
ATOM     32  C   UNL     1      26.172   0.811  52.519  0.00  0.00    +0.000 A 
ATOM     33  C   UNL     1      26.925   1.940  52.894  0.00  0.00    +0.000 A 
ATOM     34  C   UNL     1      28.234   1.820  53.368  0.00  0.00    +0.000 A 
ATOM     35  C   UNL     1      28.822   0.562  53.479  0.00  0.00    +0.000 A 
ATOM     36  C   UNL     1      28.102  -0.570  53.105  0.00  0.00    +0.000 A 
ATOM     37  C   UNL     1      26.793  -0.447  52.629  0.00  0.00    +0.000 A 
ENDBRANCH  30  32
ENDBRANCH  28  30
ENDBRANCH   4  28
TORSDOF 7
ENDMDL
MODEL 8
REMARK VINA RESULT:    -8.540      1.434      2.023
REMARK INTER + INTRA:         -13.291
REMARK INTER:                 -11.756
REMARK INTRA:                  -1.535
REMARK UNBOUND:                -1.256
REMARK  Name = 
REMARK  9 active torsions:
REMARK  status: ('A' for Active; 'I' for Inactive)
REMARK    1  A    between atoms: C_1  and  C_2
REMARK    2  A    between atoms: C_2  and  N_3
REMARK    3  A    between atoms: N_6  and  C_7
REMARK    4  A    between atoms: C_7  and  C_8
REMARK    5  A    between atoms: C_11  and  C_12
REMARK    6  A    between atoms: C_15  and  N_16
REMARK    7  A    between atoms: N_16  and  C_17
REMARK    8  A    between atoms: C_17  and  C_18
REMARK    9  A    between atoms: C_17  and  C_19
REMARK                            x       y       z     vdW  Elec       q    Type
REMARK                         _______ _______ _______ _____ _____    ______ ____
ROOT
ATOM      1  C   UNL     1      24.552   2.487  50.887  0.00  0.00    +0.000 A 
ATOM      2  C   UNL     1      23.269   2.209  51.353  0.00  0.00    +0.000 A 
ATOM      3  C   UNL     1      23.348   1.169  52.325  0.00  0.00    +0.000 A 
ATOM      4  C   UNL     1      22.455   0.484  53.181  0.00  0.00    +0.000 A 
ATOM      5  N   UNL     1      22.975  -0.478  53.982  0.00  0.00    +0.000 NA
ATOM      6  C   UNL     1      24.300  -0.722  53.946  0.00  0.00    +0.000 A 
ATOM      7  N   UNL     1      25.231  -0.124  53.187  0.00  0.00    +0.000 NA
ATOM      8  C   UNL     1      24.683   0.810  52.399  0.00  0.00    +0.000 A 
ATOM      9  N   UNL     1      25.387   1.598  51.535  0.00  0.00    +0.000 N 
ATOM     10  H   UNL     1      26.361   1.541  51.394  0.00  0.00    +0.000 HD
ENDROOT
BRANCH   1  14
ATOM     11  C   UNL     1      26.086   5.869  48.735  0.00  0.00    +0.000 A 
ATOM     12  C   UNL     1      24.715   5.744  48.995  0.00  0.00    +0.000 A 
ATOM     13  C   UNL     1      24.214   4.608  49.638  0.00  0.00    +0.000 A 
ATOM     14  C   UNL     1      25.060   3.560  50.020  0.00  0.00    +0.000 A 
ATOM     15  C   UNL     1      26.408   3.629  49.639  0.00  0.00    +0.000 A 
ATOM     16  C   UNL     1      26.919   4.777  49.015  0.00  0.00    +0.000 A 
BRANCH  11  17
ATOM     17  C   UNL     1      26.664   7.202  48.290  0.00  0.00    +0.000 C 
BRANCH  17  21
ATOM     18  N   UNL     1      29.240  10.105  48.063  0.00  0.00    +0.000 N 
ATOM     19  C   UNL     1      28.000  10.128  48.862  0.00  0.00    +0.000 C 
ATOM     20  C   UNL     1      27.756   8.882  49.750  0.00  0.00    +0.000 C 
ATOM     21  N   UNL     1      27.860   7.573  49.070  0.00  0.00    +0.000 N 
ATOM     22  C   UNL     1      29.090   7.553  48.254  0.00  0.00    +0.000 C 
ATOM     23  C   UNL     1      29.332   8.802  47.370  0.00  0.00    +0.000 C 
ATOM     24  H   UNL     1      29.189  10.862  47.382  0.00  0.00    +0.000 HD
ATOM     25  H   UNL     1      27.915   6.854  49.790  0.00  0.00    +0.000 HD
BRANCH  18  27
ATOM     26  C   UNL     1      31.741  10.150  48.059  0.00  0.00    +0.000 C 
ATOM     27  C   UNL     1      30.453  10.385  48.847  0.00  0.00    +0.000 C 
ENDBRANCH  18  27
ENDBRANCH  17  21
ENDBRANCH  11  17
ENDBRANCH   1  14
BRANCH   4  28
ATOM     28  N   UNL     1      21.104   0.783  53.246  0.00  0.00    +0.000 N 
ATOM     29  H   UNL     1      20.750   1.325  53.987  0.00  0.00    +0.000 HD
BRANCH  28  30
ATOM     30  C   UNL     1      20.209   0.286  52.206  0.00  0.00    +0.000 C 
ATOM     31  C   UNL     1      19.039  -0.429  52.896  0.00  0.00    +0.000 C 
BRANCH  30  32
ATOM     32  C   UNL     1      19.813   1.428  51.273  0.00  0.00    +0.000 A 
ATOM     33  C   UNL     1      19.519   2.690  51.824  0.00  0.00    +0.000 A 
ATOM     34  C   UNL     1      19.235   3.792  51.012  0.00  0.00    +0.000 A 
ATOM     35  C   UNL     1      19.242   3.656  49.626  0.00  0.00    +0.000 A 
ATOM     36  C   UNL     1      19.520   2.416  49.057  0.00  0.00    +0.000 A 
ATOM     37  C   UNL     1      19.800   1.314  49.871  0.00  0.00    +0.000 A 
ENDBRANCH  30  32
ENDBRANCH  28  30
ENDBRANCH   4  28
TORSDOF 7
ENDMDL
MODEL 9
REMARK VINA RESULT:    -8.517      1.837      4.041
REMARK INTER + INTRA:         -13.258
REMARK INTER:                 -11.890
REMARK INTRA:                  -1.367
REMARK UNBOUND:                -1.256
REMARK  Name = 
REMARK  9 active torsions:
REMARK  status: ('A' for Active; 'I' for Inactive)
REMARK    1  A    between atoms: C_1  and  C_2
REMARK    2  A    between atoms: C_2  and  N_3
REMARK    3  A    between atoms: N_6  and  C_7
REMARK    4  A    between atoms: C_7  and  C_8
REMARK    5  A    between atoms: C_11  and  C_12
REMARK    6  A    between atoms: C_15  and  N_16
REMARK    7  A    between atoms: N_16  and  C_17
REMARK    8  A    between atoms: C_17  and  C_18
REMARK    9  A    between atoms: C_17  and  C_19
REMARK                            x       y       z     vdW  Elec       q    Type
REMARK                         _______ _______ _______ _____ _____    ______ ____
ROOT
ATOM      1  C   UNL     1      23.702   3.482  49.996  0.00  0.00    +0.000 A 
ATOM      2  C   UNL     1      23.816   2.374  50.833  0.00  0.00    +0.000 A 
ATOM      3  C   UNL     1      22.532   1.771  50.976  0.00  0.00    +0.000 A 
ATOM      4  C   UNL     1      21.988   0.637  51.621  0.00  0.00    +0.000 A 
ATOM      5  N   UNL     1      20.656   0.426  51.491  0.00  0.00    +0.000 NA
ATOM      6  C   UNL     1      19.920   1.279  50.751  0.00  0.00    +0.000 A 
ATOM      7  N   UNL     1      20.337   2.370  50.090  0.00  0.00    +0.000 NA
ATOM      8  C   UNL     1      21.654   2.557  50.249  0.00  0.00    +0.000 A 
ATOM      9  N   UNL     1      22.361   3.573  49.676  0.00  0.00    +0.000 N 
ATOM     10  H   UNL     1      21.970   4.277  49.109  0.00  0.00    +0.000 HD
ENDROOT
BRANCH   1  14
ATOM     11  C   UNL     1      26.695   6.233  48.622  0.00  0.00    +0.000 A 
ATOM     12  C   UNL     1      25.333   6.541  48.514  0.00  0.00    +0.000 A 
ATOM     13  C   UNL     1      24.362   5.613  48.902  0.00  0.00    +0.000 A 
ATOM     14  C   UNL     1      24.721   4.350  49.388  0.00  0.00    +0.000 A 
ATOM     15  C   UNL     1      26.078   3.998  49.369  0.00  0.00    +0.000 A 
ATOM     16  C   UNL     1      27.057   4.933  49.002  0.00  0.00    +0.000 A 
BRANCH  11  17
ATOM     17  C   UNL     1      27.743   7.322  48.462  0.00  0.00    +0.000 C 
BRANCH  17  21
ATOM     18  N   UNL     1      31.045   8.982  47.254  0.00  0.00    +0.000 N 
ATOM     19  C   UNL     1      30.941   7.979  48.332  0.00  0.00    +0.000 C 
ATOM     20  C   UNL     1      30.102   6.721  47.992  0.00  0.00    +0.000 C 
ATOM     21  N   UNL     1      28.752   6.974  47.444  0.00  0.00    +0.000 N 
ATOM     22  C   UNL     1      28.849   7.992  46.379  0.00  0.00    +0.000 C 
ATOM     23  C   UNL     1      29.691   9.246  46.721  0.00  0.00    +0.000 C 
ATOM     24  H   UNL     1      31.436   9.834  47.656  0.00  0.00    +0.000 HD
ATOM     25  H   UNL     1      28.410   6.098  47.050  0.00  0.00    +0.000 HD
BRANCH  18  27
ATOM     26  C   UNL     1      31.978   9.587  45.015  0.00  0.00    +0.000 C 
ATOM     27  C   UNL     1      31.982   8.604  46.185  0.00  0.00    +0.000 C 
ENDBRANCH  18  27
ENDBRANCH  17  21
ENDBRANCH  11  17
ENDBRANCH   1  14
BRANCH   4  28
ATOM     28  N   UNL     1      22.765  -0.262  52.335  0.00  0.00    +0.000 N 
ATOM     29  H   UNL     1      22.940  -1.162  51.976  0.00  0.00    +0.000 HD
BRANCH  28  30
ATOM     30  C   UNL     1      23.321   0.137  53.623  0.00  0.00    +0.000 C 
ATOM     31  C   UNL     1      22.819  -0.857  54.679  0.00  0.00    +0.000 C 
BRANCH  30  32
ATOM     32  C   UNL     1      24.839   0.260  53.517  0.00  0.00    +0.000 A 
ATOM     33  C   UNL     1      25.591  -0.862  53.122  0.00  0.00    +0.000 A 
ATOM     34  C   UNL     1      26.972  -0.783  52.925  0.00  0.00    +0.000 A 
ATOM     35  C   UNL     1      27.635   0.426  53.117  0.00  0.00    +0.000 A 
ATOM     36  C   UNL     1      26.915   1.550  53.518  0.00  0.00    +0.000 A 
ATOM     37  C   UNL     1      25.534   1.467  53.717  0.00  0.00    +0.000 A 
ENDBRANCH  30  32
ENDBRANCH  28  30
ENDBRANCH   4  28
TORSDOF 7
ENDMDL
