REMARK  Name = 
REMARK  4 active torsions:
REMARK  status: ('A' for Active; 'I' for Inactive)
REMARK    1  A    between atoms: N_1  and  C_2
REMARK    2  A    between atoms: C_8  and  N_9
REMARK    3  A    between atoms: N_9  and  C_10
REMARK    4  A    between atoms: C_10  and  C_11
REMARK                            x       y       z     vdW  Elec       q    Type
REMARK                         _______ _______ _______ _____ _____    ______ ____
ROOT
ATOM      1  C   UNL     1       0.244   0.959   0.766  0.00  0.00    +0.000 A 
ATOM      2  C   UNL     1      -0.619   0.739   1.828  0.00  0.00    +0.000 A 
ATOM      3  C   UNL     1      -1.115   1.811   2.555  0.00  0.00    +0.000 A 
ATOM      4  N   UNL     1      -1.905   1.592   3.614  0.00  0.00    +0.000 NA
ATOM      5  C   UNL     1      -2.270   2.667   4.328  0.00  0.00    +0.000 A 
ATOM      6  N   UNL     1      -1.929   3.940   4.086  0.00  0.00    +0.000 NA
ATOM      7  C   UNL     1      -1.166   4.151   3.001  0.00  0.00    +0.000 A 
ATOM      8  C   UNL     1      -0.735   3.096   2.180  0.00  0.00    +0.000 A 
ATOM      9  C   UNL     1       0.103   3.225   1.068  0.00  0.00    +0.000 A 
ATOM     10  N   UNL     1       0.595   2.185   0.361  0.00  0.00    +0.000 NA
ENDROOT
BRANCH   1  11
ATOM     11  N   UNL     1       0.862  -0.102   0.114  0.00  0.00    +0.000 N 
ATOM     12  H   UNL     1       0.646  -1.028   0.367  0.00  0.00    +0.000 HD
ATOM     13  H   UNL     1       1.516   0.073  -0.600  0.00  0.00    +0.000 HD
ENDBRANCH   1  11
BRANCH   7  14
ATOM     14  N   UNL     1      -0.749   5.446   2.703  0.00  0.00    +0.000 N 
ATOM     15  H   UNL     1      -0.461   5.682   1.791  0.00  0.00    +0.000 HD
BRANCH  14  16
ATOM     16  C   UNL     1      -0.747   6.442   3.760  0.00  0.00    +0.000 C 
BRANCH  16  17
ATOM     17  C   UNL     1       0.232   7.517   3.331  0.00  0.00    +0.000 A 
ATOM     18  C   UNL     1      -0.158   8.855   3.190  0.00  0.00    +0.000 A 
ATOM     19  C   UNL     1       0.745   9.803   2.700  0.00  0.00    +0.000 A 
ATOM     20  C   UNL     1       2.042   9.426   2.347  0.00  0.00    +0.000 A 
ATOM     21  C   UNL     1       2.443   8.105   2.511  0.00  0.00    +0.000 A 
ATOM     22 BR   UNL     1       4.190   7.578   2.014  0.00  0.00    +0.000 Br
ATOM     23  C   UNL     1       1.555   7.157   3.012  0.00  0.00    +0.000 A 
ENDBRANCH  16  17
ENDBRANCH  14  16
ENDBRANCH   7  14
TORSDOF 4
