REMARK  Name = 
REMARK  7 active torsions:
REMARK  status: ('A' for Active; 'I' for Inactive)
REMARK    1  A    between atoms: C_1  and  N_2
REMARK    2  A    between atoms: N_2  and  C_11
REMARK    3  A    between atoms: C_3  and  C_5
REMARK    4  A    between atoms: C_14  and  C_15
REMARK    5  A    between atoms: C_20  and  C_21
REMARK    6  A    between atoms: C_28  and  C_29
REMARK    7  A    between atoms: N_31  and  O_32
REMARK                            x       y       z     vdW  Elec       q    Type
REMARK                         _______ _______ _______ _____ _____    ______ ____
ROOT
ATOM      1  C   UNL     1       0.662   2.180   1.109  0.00  0.00    +0.000 C 
ATOM      2  C   UNL     1       2.121   2.698   1.147  0.00  0.00    +0.000 C 
ATOM      3  N   UNL     1       2.372   3.713   0.120  0.00  0.00    +0.000 N 
ATOM      4  C   UNL     1       1.526   4.923   0.291  0.00  0.00    +0.000 C 
ATOM      5  C   UNL     1       0.029   4.581   0.324  0.00  0.00    +0.000 C 
ATOM      6  C   UNL     1      -0.282   3.398   1.244  0.00  0.00    +0.000 C 
ATOM      7  H   UNL     1       2.179   3.307  -0.795  0.00  0.00    +0.000 HD
ATOM      8  H   UNL     1       3.346   4.004   0.206  0.00  0.00    +0.000 HD
ENDROOT
BRANCH   4   9
ATOM      9  C   UNL     1       1.971   5.687   1.572  0.00  0.00    +0.000 C 
ATOM     10  O   UNL     1       1.248   5.768   2.563  0.00  0.00    +0.000 OA
ATOM     11  N   UNL     1       3.259   6.182   1.570  0.00  0.00    +0.000 N 
ATOM     12  C   UNL     1       3.849   6.784   2.749  0.00  0.00    +0.000 C 
ATOM     13  C   UNL     1       4.652   7.947   2.197  0.00  0.00    +0.000 C 
ATOM     14  C   UNL     1       5.158   7.421   0.846  0.00  0.00    +0.000 C 
ATOM     15  C   UNL     1       4.086   6.424   0.395  0.00  0.00    +0.000 C 
BRANCH  14  16
ATOM     16  C   UNL     1       5.405   8.482  -0.197  0.00  0.00    +0.000 A 
ATOM     17  C   UNL     1       6.657   8.562  -0.819  0.00  0.00    +0.000 A 
ATOM     18  C   UNL     1       6.893   9.510  -1.813  0.00  0.00    +0.000 A 
ATOM     19  C   UNL     1       5.880  10.384  -2.203  0.00  0.00    +0.000 A 
ATOM     20  C   UNL     1       4.627  10.309  -1.602  0.00  0.00    +0.000 A 
ATOM     21  C   UNL     1       4.389   9.363  -0.606  0.00  0.00    +0.000 A 
ENDBRANCH  14  16
ENDBRANCH   4   9
BRANCH   1  23
ATOM     22  C   UNL     1       1.174   1.398  -1.270  0.00  0.00    +0.000 C 
ATOM     23  N   UNL     1       0.358   1.275  -0.048  0.00  0.00    +0.000 N 
ATOM     24  C   UNL     1      -0.167  -0.038   0.134  0.00  0.00    +0.000 C 
ATOM     25  O   UNL     1       0.083  -0.947  -0.656  0.00  0.00    +0.000 OA
BRANCH  24  26
ATOM     26  C   UNL     1      -1.054  -0.380   1.280  0.00  0.00    +0.000 A 
ATOM     27  C   UNL     1      -1.969   0.525   1.822  0.00  0.00    +0.000 A 
ATOM     28  C   UNL     1      -2.775   0.182   2.908  0.00  0.00    +0.000 A 
ATOM     29  C   UNL     1      -2.747  -1.116   3.399  0.00  0.00    +0.000 A 
ATOM     30  C   UNL     1      -1.915  -2.065   2.807  0.00  0.00    +0.000 A 
ATOM     31  C   UNL     1      -1.063  -1.696   1.761  0.00  0.00    +0.000 A 
ENDBRANCH  24  26
ENDBRANCH   1  23
BRANCH   5  32
ATOM     32  C   UNL     1      -0.539   4.502  -1.092  0.00  0.00    +0.000 C 
ATOM     33  O   UNL     1      -0.387   5.418  -1.908  0.00  0.00    +0.000 OA
ATOM     34  N   UNL     1      -1.279   3.390  -1.418  0.00  0.00    +0.000 N 
ATOM     35  H   UNL     1      -1.532   2.706  -0.756  0.00  0.00    +0.000 HD
BRANCH  34  36
ATOM     36  O   UNL     1      -1.650   3.308  -2.785  0.00  0.00    +0.000 OA
ATOM     37  H   UNL     1      -1.302   4.078  -3.262  0.00  0.00    +0.000 HD
ENDBRANCH  34  36
ENDBRANCH   5  32
TORSDOF 6
