REMARK  Name = 
REMARK  11 active torsions:
REMARK  status: ('A' for Active; 'I' for Inactive)
REMARK    1  A    between atoms: C_1  and  N_2
REMARK    2  A    between atoms: N_2  and  C_3
REMARK    3  A    between atoms: N_2  and  C_4
REMARK    4  A    between atoms: C_4  and  C_5
REMARK    5  A    between atoms: N_6  and  C_7
REMARK    6  A    between atoms: N_9  and  C_10
REMARK    7  A    between atoms: C_13  and  N_14
REMARK    8  A    between atoms: N_14  and  C_15
REMARK    9  A    between atoms: C_28  and  O_29
REMARK   10  A    between atoms: O_29  and  C_30
REMARK   11  A    between atoms: C_30  and  C_31
REMARK                            x       y       z     vdW  Elec       q    Type
REMARK                         _______ _______ _______ _____ _____    ______ ____
ROOT
ATOM      1  C   UNL     1       0.104   0.909  -6.417  0.00  0.00    +0.000 A 
ATOM      2  C   UNL     1       0.661   1.906  -7.252  0.00  0.00    +0.000 A 
ATOM      3  C   UNL     1       1.876   1.656  -7.901  0.00  0.00    +0.000 A 
ATOM      4  C   UNL     1       2.751   2.664  -8.444  0.00  0.00    +0.000 A 
ATOM      5  N   UNL     1       3.940   2.344  -8.973  0.00  0.00    +0.000 NA
ATOM      6  C   UNL     1       4.260   1.038  -8.960  0.00  0.00    +0.000 A 
ATOM      7  N   UNL     1       3.516   0.027  -8.485  0.00  0.00    +0.000 NA
ATOM      8  C   UNL     1       2.344   0.322  -7.921  0.00  0.00    +0.000 A 
ATOM      9  C   UNL     1       1.640  -0.712  -7.239  0.00  0.00    +0.000 A 
ATOM     10  C   UNL     1       0.544  -0.438  -6.422  0.00  0.00    +0.000 A 
ENDROOT
BRANCH   1  13
ATOM     11  C   UNL     1       0.462   1.704  -4.211  0.00  0.00    +0.000 C 
ATOM     12  O   UNL     1       0.134   2.495  -3.326  0.00  0.00    +0.000 OA
ATOM     13  N   UNL     1      -0.450   1.399  -5.217  0.00  0.00    +0.000 N 
ATOM     14  H   UNL     1      -1.420   1.517  -5.099  0.00  0.00    +0.000 HD
BRANCH  11  16
ATOM     15  C   UNL     1       2.286   0.811  -3.222  0.00  0.00    +0.000 C 
ATOM     16  N   UNL     1       1.717   1.147  -4.333  0.00  0.00    +0.000 NA
BRANCH  15  17
ATOM     17  C   UNL     1       3.565   0.011  -3.059  0.00  0.00    +0.000 C 
BRANCH  17  19
ATOM     18  C   UNL     1       4.750   0.030  -5.179  0.00  0.00    +0.000 C 
ATOM     19  N   UNL     1       4.006  -0.791  -4.222  0.00  0.00    +0.000 N 
ATOM     20  C   UNL     1       4.875  -1.885  -3.761  0.00  0.00    +0.000 C 
ATOM     21  H   UNL     1       3.176  -1.163  -4.683  0.00  0.00    +0.000 HD
ENDBRANCH  17  19
ENDBRANCH  15  17
ENDBRANCH  11  16
ENDBRANCH   1  13
BRANCH   4  22
ATOM     22  N   UNL     1       2.450   4.059  -8.272  0.00  0.00    +0.000 N 
ATOM     23  H   UNL     1       1.810   4.279  -7.557  0.00  0.00    +0.000 HD
BRANCH  22  24
ATOM     24  C   UNL     1       2.968   5.164  -9.014  0.00  0.00    +0.000 A 
ATOM     25  C   UNL     1       3.063   6.444  -8.424  0.00  0.00    +0.000 A 
ATOM     26  C   UNL     1       3.428   7.575  -9.176  0.00  0.00    +0.000 A 
ATOM     27  C   UNL     1       3.677   7.447 -10.536  0.00  0.00    +0.000 A 
ATOM     28  F   UNL     1       3.993   8.542 -11.247  0.00  0.00    +0.000 F 
ATOM     29  C   UNL     1       3.578   6.200 -11.145  0.00  0.00    +0.000 A 
ATOM     30 CL   UNL     1       3.839   6.039 -12.843  0.00  0.00    +0.000 Cl
ATOM     31  C   UNL     1       3.228   5.070 -10.391  0.00  0.00    +0.000 A 
ENDBRANCH  22  24
ENDBRANCH   4  22
BRANCH  10  32
ATOM     32  O   UNL     1       0.196  -1.202  -5.319  0.00  0.00    +0.000 OA
BRANCH  32  33
ATOM     33  C   UNL     1      -0.285  -2.562  -5.343  0.00  0.00    +0.000 C 
BRANCH  33  34
ATOM     34  C   UNL     1       0.570  -3.450  -4.430  0.00  0.00    +0.000 C 
ATOM     35  C   UNL     1       0.870  -2.910  -3.056  0.00  0.00    +0.000 C 
ATOM     36  O   UNL     1       1.442  -3.981  -2.270  0.00  0.00    +0.000 OA
ATOM     37  C   UNL     1       0.943  -5.227  -2.781  0.00  0.00    +0.000 C 
ATOM     38  C   UNL     1       0.428  -4.924  -4.156  0.00  0.00    +0.000 C 
ATOM     39  C   UNL     1       1.437  -4.475  -5.153  0.00  0.00    +0.000 C 
ENDBRANCH  33  34
ENDBRANCH  32  33
ENDBRANCH  10  32
TORSDOF 9
