REMARK  Name = 
REMARK  6 active torsions:
REMARK  status: ('A' for Active; 'I' for Inactive)
REMARK    1  A    between atoms: C_1  and  O_2
REMARK    2  A    between atoms: O_2  and  C_3
REMARK    3  A    between atoms: C_9  and  N_10
REMARK    4  A    between atoms: N_10  and  C_11
REMARK    5  A    between atoms: C_20  and  O_21
REMARK    6  A    between atoms: O_21  and  C_22
REMARK                            x       y       z     vdW  Elec       q    Type
REMARK                         _______ _______ _______ _____ _____    ______ ____
ROOT
ATOM      1  C   UNL     1       0.930   2.393   0.591  0.00  0.00    +0.000 A 
ATOM      2  C   UNL     1      -0.077   3.239   1.074  0.00  0.00    +0.000 A 
ATOM      3  C   UNL     1       0.165   4.243   1.999  0.00  0.00    +0.000 A 
ATOM      4  N   UNL     1      -0.879   4.961   2.412  0.00  0.00    +0.000 NA
ATOM      5  C   UNL     1      -0.636   5.887   3.339  0.00  0.00    +0.000 A 
ATOM      6  N   UNL     1       0.549   6.150   3.883  0.00  0.00    +0.000 NA
ATOM      7  C   UNL     1       1.599   5.419   3.456  0.00  0.00    +0.000 A 
ATOM      8  C   UNL     1       1.470   4.431   2.465  0.00  0.00    +0.000 A 
ATOM      9  C   UNL     1       2.505   3.611   1.958  0.00  0.00    +0.000 A 
ATOM     10  C   UNL     1       2.249   2.616   1.006  0.00  0.00    +0.000 A 
ENDROOT
BRANCH   1  12
ATOM     11  C   UNL     1      -0.658   0.821  -0.208  0.00  0.00    +0.000 C 
ATOM     12  O   UNL     1       0.663   1.360  -0.271  0.00  0.00    +0.000 OA
ENDBRANCH   1  12
BRANCH   7  13
ATOM     13  N   UNL     1       2.862   5.665   4.055  0.00  0.00    +0.000 N 
ATOM     14  H   UNL     1       3.671   5.431   3.546  0.00  0.00    +0.000 HD
BRANCH  13  15
ATOM     15  C   UNL     1       3.025   6.227   5.341  0.00  0.00    +0.000 A 
ATOM     16  C   UNL     1       2.163   5.870   6.395  0.00  0.00    +0.000 A 
ATOM     17  C   UNL     1       2.301   6.433   7.663  0.00  0.00    +0.000 A 
ATOM     18  C   UNL     1       3.322   7.344   7.900  0.00  0.00    +0.000 A 
ATOM     19 CL   UNL     1       3.476   8.066   9.453  0.00  0.00    +0.000 Cl
ATOM     20  C   UNL     1       4.218   7.674   6.885  0.00  0.00    +0.000 A 
ATOM     21  C   UNL     1       4.076   7.109   5.612  0.00  0.00    +0.000 A 
ENDBRANCH  13  15
ENDBRANCH   7  13
BRANCH  10  22
ATOM     22  O   UNL     1       3.366   1.912   0.642  0.00  0.00    +0.000 OA
ATOM     23  C   UNL     1       3.399   1.395  -0.683  0.00  0.00    +0.000 C 
ENDBRANCH  10  22
TORSDOF 4
