MODEL 1
REMARK VINA RESULT:    -9.683      0.000      0.000
REMARK INTER + INTRA:         -13.523
REMARK INTER:                 -12.514
REMARK INTRA:                  -1.009
REMARK UNBOUND:                -1.009
REMARK  Name = 
REMARK  5 active torsions:
REMARK  status: ('A' for Active; 'I' for Inactive)
REMARK    1  A    between atoms: C_6  and  C_7
REMARK    2  A    between atoms: C_7  and  N_8
REMARK    3  A    between atoms: C_13  and  N_14
REMARK    4  A    between atoms: C_22  and  C_23
REMARK    5  A    between atoms: C_23  and  N_24
REMARK                            x       y       z     vdW  Elec       q    Type
REMARK                         _______ _______ _______ _____ _____    ______ ____
ROOT
ATOM      1  N   UNL     1      25.145   3.460  51.172  0.00  0.00    +0.000 N 
ATOM      2  C   UNL     1      23.948   2.770  51.102  0.00  0.00    +0.000 A 
ATOM      3  N   UNL     1      23.008   3.172  50.293  0.00  0.00    +0.000 NA
ATOM      4  C   UNL     1      21.825   2.504  50.199  0.00  0.00    +0.000 A 
ATOM      5  N   UNL     1      21.502   1.421  50.823  0.00  0.00    +0.000 NA
ATOM      6  N   UNL     1      22.454   0.979  51.654  0.00  0.00    +0.000 N 
ATOM      7  C   UNL     1      22.343  -0.158  52.398  0.00  0.00    +0.000 A 
ATOM      8  C   UNL     1      23.485  -0.289  53.143  0.00  0.00    +0.000 A 
ATOM      9  C   UNL     1      24.304   0.865  52.903  0.00  0.00    +0.000 A 
ATOM     10  C   UNL     1      23.660   1.590  51.894  0.00  0.00    +0.000 A 
ATOM     11  H   UNL     1      25.733   3.225  51.926  0.00  0.00    +0.000 HD
ENDROOT
BRANCH   1  17
ATOM     12  N   UNL     1      26.986   7.527  47.821  0.00  0.00    +0.000 N 
ATOM     13  N   UNL     1      26.155   8.562  48.097  0.00  0.00    +0.000 NA
ATOM     14  C   UNL     1      25.302   8.051  48.986  0.00  0.00    +0.000 A 
ATOM     15  C   UNL     1      25.597   6.708  49.315  0.00  0.00    +0.000 A 
ATOM     16  C   UNL     1      25.035   5.732  50.166  0.00  0.00    +0.000 A 
ATOM     17  C   UNL     1      25.633   4.462  50.295  0.00  0.00    +0.000 A 
ATOM     18  C   UNL     1      26.790   4.204  49.546  0.00  0.00    +0.000 A 
ATOM     19  C   UNL     1      27.358   5.151  48.674  0.00  0.00    +0.000 A 
ATOM     20  C   UNL     1      26.729   6.399  48.572  0.00  0.00    +0.000 A 
BRANCH  12  21
ATOM     21  C   UNL     1      28.041   7.714  46.830  0.00  0.00    +0.000 C 
BRANCH  21  27
ATOM     22  F   UNL     1      31.027   9.869  50.046  0.00  0.00    +0.000 F 
ATOM     23  C   UNL     1      30.861   8.978  49.058  0.00  0.00    +0.000 A 
ATOM     24  C   UNL     1      31.953   8.247  48.607  0.00  0.00    +0.000 A 
ATOM     25  C   UNL     1      31.779   7.333  47.571  0.00  0.00    +0.000 A 
ATOM     26  C   UNL     1      30.514   7.157  47.000  0.00  0.00    +0.000 A 
ATOM     27  C   UNL     1      29.404   7.886  47.459  0.00  0.00    +0.000 A 
ATOM     28  C   UNL     1      29.597   8.811  48.499  0.00  0.00    +0.000 A 
ENDBRANCH  21  27
ENDBRANCH  12  21
ENDBRANCH   1  17
BRANCH   9  29
ATOM     29  C   UNL     1      25.567   1.126  53.682  0.00  0.00    +0.000 C 
BRANCH  29  30
ATOM     30  N   UNL     1      26.756   0.768  52.885  0.00  0.00    +0.000 N 
ATOM     31  C   UNL     1      27.583  -0.249  53.580  0.00  0.00    +0.000 C 
ATOM     32  C   UNL     1      28.551   0.271  54.678  0.00  0.00    +0.000 C 
ATOM     33  N   UNL     1      29.363   1.431  54.281  0.00  0.00    +0.000 N 
ATOM     34  C   UNL     1      28.486   2.464  53.711  0.00  0.00    +0.000 C 
ATOM     35  C   UNL     1      27.632   1.918  52.546  0.00  0.00    +0.000 C 
ATOM     36  H   UNL     1      26.373   0.399  52.014  0.00  0.00    +0.000 HD
ATOM     37  H   UNL     1      30.049   1.144  53.584  0.00  0.00    +0.000 HD
ATOM     38  H   UNL     1      29.847   1.805  55.097  0.00  0.00    +0.000 HD
ENDBRANCH  29  30
ENDBRANCH   9  29
TORSDOF 5
ENDMDL
MODEL 2
REMARK VINA RESULT:    -9.541      2.129      4.898
REMARK INTER + INTRA:         -13.339
REMARK INTER:                 -12.224
REMARK INTRA:                  -1.115
REMARK UNBOUND:                -1.009
REMARK  Name = 
REMARK  5 active torsions:
REMARK  status: ('A' for Active; 'I' for Inactive)
REMARK    1  A    between atoms: C_6  and  C_7
REMARK    2  A    between atoms: C_7  and  N_8
REMARK    3  A    between atoms: C_13  and  N_14
REMARK    4  A    between atoms: C_22  and  C_23
REMARK    5  A    between atoms: C_23  and  N_24
REMARK                            x       y       z     vdW  Elec       q    Type
REMARK                         _______ _______ _______ _____ _____    ______ ____
ROOT
ATOM      1  N   UNL     1      23.067   2.357  51.769  0.00  0.00    +0.000 N 
ATOM      2  C   UNL     1      23.678   1.335  52.474  0.00  0.00    +0.000 A 
ATOM      3  N   UNL     1      24.968   1.164  52.389  0.00  0.00    +0.000 NA
ATOM      4  C   UNL     1      25.594   0.172  53.082  0.00  0.00    +0.000 A 
ATOM      5  N   UNL     1      25.044  -0.658  53.903  0.00  0.00    +0.000 NA
ATOM      6  N   UNL     1      23.720  -0.497  54.017  0.00  0.00    +0.000 N 
ATOM      7  C   UNL     1      22.934  -1.244  54.844  0.00  0.00    +0.000 A 
ATOM      8  C   UNL     1      21.639  -0.824  54.689  0.00  0.00    +0.000 A 
ATOM      9  C   UNL     1      21.618   0.175  53.660  0.00  0.00    +0.000 A 
ATOM     10  C   UNL     1      22.957   0.415  53.331  0.00  0.00    +0.000 A 
ATOM     11  H   UNL     1      22.085   2.319  51.723  0.00  0.00    +0.000 HD
ENDROOT
BRANCH   1  17
ATOM     12  N   UNL     1      25.474   6.749  49.303  0.00  0.00    +0.000 N 
ATOM     13  N   UNL     1      25.244   7.763  50.173  0.00  0.00    +0.000 NA
ATOM     14  C   UNL     1      24.521   7.191  51.137  0.00  0.00    +0.000 A 
ATOM     15  C   UNL     1      24.313   5.810  50.917  0.00  0.00    +0.000 A 
ATOM     16  C   UNL     1      23.643   4.771  51.597  0.00  0.00    +0.000 A 
ATOM     17  C   UNL     1      23.676   3.451  51.104  0.00  0.00    +0.000 A 
ATOM     18  C   UNL     1      24.387   3.213  49.918  0.00  0.00    +0.000 A 
ATOM     19  C   UNL     1      25.045   4.235  49.208  0.00  0.00    +0.000 A 
ATOM     20  C   UNL     1      24.982   5.534  49.730  0.00  0.00    +0.000 A 
BRANCH  12  21
ATOM     21  C   UNL     1      26.214   7.025  48.075  0.00  0.00    +0.000 C 
BRANCH  21  27
ATOM     22  F   UNL     1      30.593   9.079  48.787  0.00  0.00    +0.000 F 
ATOM     23  C   UNL     1      29.867   7.967  48.608  0.00  0.00    +0.000 A 
ATOM     24  C   UNL     1      30.506   6.733  48.569  0.00  0.00    +0.000 A 
ATOM     25  C   UNL     1      29.749   5.582  48.369  0.00  0.00    +0.000 A 
ATOM     26  C   UNL     1      28.362   5.675  48.215  0.00  0.00    +0.000 A 
ATOM     27  C   UNL     1      27.709   6.919  48.264  0.00  0.00    +0.000 A 
ATOM     28  C   UNL     1      28.487   8.073  48.457  0.00  0.00    +0.000 A 
ENDBRANCH  21  27
ENDBRANCH  12  21
ENDBRANCH   1  17
BRANCH   9  29
ATOM     29  C   UNL     1      20.331   0.743  53.122  0.00  0.00    +0.000 C 
BRANCH  29  30
ATOM     30  N   UNL     1      19.856  -0.042  51.966  0.00  0.00    +0.000 N 
ATOM     31  C   UNL     1      20.199   0.625  50.685  0.00  0.00    +0.000 C 
ATOM     32  C   UNL     1      19.257   1.768  50.219  0.00  0.00    +0.000 C 
ATOM     33  N   UNL     1      17.824   1.444  50.278  0.00  0.00    +0.000 N 
ATOM     34  C   UNL     1      17.504   0.902  51.606  0.00  0.00    +0.000 C 
ATOM     35  C   UNL     1      18.395  -0.307  51.967  0.00  0.00    +0.000 C 
ATOM     36  H   UNL     1      20.337  -0.938  52.055  0.00  0.00    +0.000 HD
ATOM     37  H   UNL     1      17.602   0.750  49.564  0.00  0.00    +0.000 HD
ATOM     38  H   UNL     1      17.275   2.287  50.112  0.00  0.00    +0.000 HD
ENDBRANCH  29  30
ENDBRANCH   9  29
TORSDOF 5
ENDMDL
MODEL 3
REMARK VINA RESULT:    -9.322      4.816      8.193
REMARK INTER + INTRA:         -13.056
REMARK INTER:                 -12.605
REMARK INTRA:                  -0.451
REMARK UNBOUND:                -1.009
REMARK  Name = 
REMARK  5 active torsions:
REMARK  status: ('A' for Active; 'I' for Inactive)
REMARK    1  A    between atoms: C_6  and  C_7
REMARK    2  A    between atoms: C_7  and  N_8
REMARK    3  A    between atoms: C_13  and  N_14
REMARK    4  A    between atoms: C_22  and  C_23
REMARK    5  A    between atoms: C_23  and  N_24
REMARK                            x       y       z     vdW  Elec       q    Type
REMARK                         _______ _______ _______ _____ _____    ______ ____
ROOT
ATOM      1  N   UNL     1      21.218   1.076  51.412  0.00  0.00    +0.000 N 
ATOM      2  C   UNL     1      20.319   0.260  52.076  0.00  0.00    +0.000 A 
ATOM      3  N   UNL     1      20.744  -0.587  52.971  0.00  0.00    +0.000 NA
ATOM      4  C   UNL     1      19.878  -1.393  53.646  0.00  0.00    +0.000 A 
ATOM      5  N   UNL     1      18.592  -1.402  53.536  0.00  0.00    +0.000 NA
ATOM      6  N   UNL     1      18.127  -0.534  52.630  0.00  0.00    +0.000 N 
ATOM      7  C   UNL     1      16.803  -0.353  52.362  0.00  0.00    +0.000 A 
ATOM      8  C   UNL     1      16.695   0.589  51.373  0.00  0.00    +0.000 A 
ATOM      9  C   UNL     1      18.022   0.947  50.959  0.00  0.00    +0.000 A 
ATOM     10  C   UNL     1      18.889   0.287  51.836  0.00  0.00    +0.000 A 
ATOM     11  H   UNL     1      20.866   1.552  50.625  0.00  0.00    +0.000 HD
ENDROOT
BRANCH   1  17
ATOM     12  N   UNL     1      26.585   2.144  52.512  0.00  0.00    +0.000 N 
ATOM     13  N   UNL     1      26.992   2.856  51.432  0.00  0.00    +0.000 NA
ATOM     14  C   UNL     1      25.912   2.884  50.650  0.00  0.00    +0.000 A 
ATOM     15  C   UNL     1      24.801   2.231  51.231  0.00  0.00    +0.000 A 
ATOM     16  C   UNL     1      23.467   1.977  50.847  0.00  0.00    +0.000 A 
ATOM     17  C   UNL     1      22.581   1.313  51.720  0.00  0.00    +0.000 A 
ATOM     18  C   UNL     1      23.074   0.911  52.970  0.00  0.00    +0.000 A 
ATOM     19  C   UNL     1      24.406   1.132  53.369  0.00  0.00    +0.000 A 
ATOM     20  C   UNL     1      25.253   1.790  52.469  0.00  0.00    +0.000 A 
BRANCH  12  21
ATOM     21  C   UNL     1      27.544   1.868  53.577  0.00  0.00    +0.000 C 
BRANCH  21  27
ATOM     22  F   UNL     1      27.283  -2.876  52.425  0.00  0.00    +0.000 F 
ATOM     23  C   UNL     1      28.014  -1.848  52.877  0.00  0.00    +0.000 A 
ATOM     24  C   UNL     1      29.336  -2.060  53.248  0.00  0.00    +0.000 A 
ATOM     25  C   UNL     1      30.087  -0.991  53.730  0.00  0.00    +0.000 A 
ATOM     26  C   UNL     1      29.510   0.279  53.832  0.00  0.00    +0.000 A 
ATOM     27  C   UNL     1      28.177   0.502  53.448  0.00  0.00    +0.000 A 
ATOM     28  C   UNL     1      27.428  -0.588  52.972  0.00  0.00    +0.000 A 
ENDBRANCH  21  27
ENDBRANCH  12  21
ENDBRANCH   1  17
BRANCH   9  29
ATOM     29  C   UNL     1      18.276   1.846  49.777  0.00  0.00    +0.000 C 
BRANCH  29  30
ATOM     30  N   UNL     1      17.816   3.220  50.057  0.00  0.00    +0.000 N 
ATOM     31  C   UNL     1      17.964   4.090  48.864  0.00  0.00    +0.000 C 
ATOM     32  C   UNL     1      19.376   4.681  48.602  0.00  0.00    +0.000 C 
ATOM     33  N   UNL     1      20.016   5.286  49.780  0.00  0.00    +0.000 N 
ATOM     34  C   UNL     1      19.956   4.340  50.903  0.00  0.00    +0.000 C 
ATOM     35  C   UNL     1      18.512   3.877  51.191  0.00  0.00    +0.000 C 
ATOM     36  H   UNL     1      16.834   3.109  50.312  0.00  0.00    +0.000 HD
ATOM     37  H   UNL     1      19.525   6.145  50.030  0.00  0.00    +0.000 HD
ATOM     38  H   UNL     1      20.989   5.504  49.566  0.00  0.00    +0.000 HD
ENDBRANCH  29  30
ENDBRANCH   9  29
TORSDOF 5
ENDMDL
MODEL 4
REMARK VINA RESULT:    -9.311      1.874      4.599
REMARK INTER + INTRA:         -13.042
REMARK INTER:                 -11.962
REMARK INTRA:                  -1.080
REMARK UNBOUND:                -1.009
REMARK  Name = 
REMARK  5 active torsions:
REMARK  status: ('A' for Active; 'I' for Inactive)
REMARK    1  A    between atoms: C_6  and  C_7
REMARK    2  A    between atoms: C_7  and  N_8
REMARK    3  A    between atoms: C_13  and  N_14
REMARK    4  A    between atoms: C_22  and  C_23
REMARK    5  A    between atoms: C_23  and  N_24
REMARK                            x       y       z     vdW  Elec       q    Type
REMARK                         _______ _______ _______ _____ _____    ______ ____
ROOT
ATOM      1  N   UNL     1      24.336   2.580  50.910  0.00  0.00    +0.000 N 
ATOM      2  C   UNL     1      24.811   1.721  51.885  0.00  0.00    +0.000 A 
ATOM      3  N   UNL     1      26.070   1.748  52.223  0.00  0.00    +0.000 NA
ATOM      4  C   UNL     1      26.560   0.921  53.188  0.00  0.00    +0.000 A 
ATOM      5  N   UNL     1      25.883   0.076  53.891  0.00  0.00    +0.000 NA
ATOM      6  N   UNL     1      24.584   0.034  53.572  0.00  0.00    +0.000 N 
ATOM      7  C   UNL     1      23.675  -0.765  54.199  0.00  0.00    +0.000 A 
ATOM      8  C   UNL     1      22.457  -0.567  53.604  0.00  0.00    +0.000 A 
ATOM      9  C   UNL     1      22.643   0.340  52.507  0.00  0.00    +0.000 A 
ATOM     10  C   UNL     1      23.975   0.763  52.581  0.00  0.00    +0.000 A 
ATOM     11  H   UNL     1      23.433   2.385  50.569  0.00  0.00    +0.000 HD
ENDROOT
BRANCH   1  17
ATOM     12  N   UNL     1      26.846   7.102  48.809  0.00  0.00    +0.000 N 
ATOM     13  N   UNL     1      26.296   8.122  49.512  0.00  0.00    +0.000 NA
ATOM     14  C   UNL     1      25.407   7.516  50.301  0.00  0.00    +0.000 A 
ATOM     15  C   UNL     1      25.404   6.111  50.141  0.00  0.00    +0.000 A 
ATOM     16  C   UNL     1      24.689   5.034  50.706  0.00  0.00    +0.000 A 
ATOM     17  C   UNL     1      24.984   3.704  50.340  0.00  0.00    +0.000 A 
ATOM     18  C   UNL     1      26.000   3.496  49.395  0.00  0.00    +0.000 A 
ATOM     19  C   UNL     1      26.714   4.553  48.801  0.00  0.00    +0.000 A 
ATOM     20  C   UNL     1      26.385   5.859  49.189  0.00  0.00    +0.000 A 
BRANCH  12  21
ATOM     21  C   UNL     1      27.849   7.404  47.793  0.00  0.00    +0.000 C 
BRANCH  21  27
ATOM     22  F   UNL     1      31.982   5.007  48.828  0.00  0.00    +0.000 F 
ATOM     23  C   UNL     1      31.289   6.154  48.850  0.00  0.00    +0.000 A 
ATOM     24  C   UNL     1      31.866   7.290  49.404  0.00  0.00    +0.000 A 
ATOM     25  C   UNL     1      31.137   8.476  49.436  0.00  0.00    +0.000 A 
ATOM     26  C   UNL     1      29.842   8.515  48.911  0.00  0.00    +0.000 A 
ATOM     27  C   UNL     1      29.257   7.371  48.340  0.00  0.00    +0.000 A 
ATOM     28  C   UNL     1      30.001   6.179  48.323  0.00  0.00    +0.000 A 
ENDBRANCH  21  27
ENDBRANCH  12  21
ENDBRANCH   1  17
BRANCH   9  29
ATOM     29  C   UNL     1      21.537   0.657  51.535  0.00  0.00    +0.000 C 
BRANCH  29  30
ATOM     30  N   UNL     1      20.341   1.148  52.246  0.00  0.00    +0.000 N 
ATOM     31  C   UNL     1      19.140   0.350  51.894  0.00  0.00    +0.000 C 
ATOM     32  C   UNL     1      18.425   0.713  50.564  0.00  0.00    +0.000 C 
ATOM     33  N   UNL     1      18.178   2.150  50.374  0.00  0.00    +0.000 N 
ATOM     34  C   UNL     1      19.424   2.892  50.611  0.00  0.00    +0.000 C 
ATOM     35  C   UNL     1      20.028   2.578  51.998  0.00  0.00    +0.000 C 
ATOM     36  H   UNL     1      20.575   1.045  53.234  0.00  0.00    +0.000 HD
ATOM     37  H   UNL     1      17.464   2.463  51.032  0.00  0.00    +0.000 HD
ATOM     38  H   UNL     1      17.855   2.319  49.421  0.00  0.00    +0.000 HD
ENDBRANCH  29  30
ENDBRANCH   9  29
TORSDOF 5
ENDMDL
MODEL 5
REMARK VINA RESULT:    -8.951      2.604      3.400
REMARK INTER + INTRA:         -12.577
REMARK INTER:                 -11.555
REMARK INTRA:                  -1.021
REMARK UNBOUND:                -1.009
REMARK  Name = 
REMARK  5 active torsions:
REMARK  status: ('A' for Active; 'I' for Inactive)
REMARK    1  A    between atoms: C_6  and  C_7
REMARK    2  A    between atoms: C_7  and  N_8
REMARK    3  A    between atoms: C_13  and  N_14
REMARK    4  A    between atoms: C_22  and  C_23
REMARK    5  A    between atoms: C_23  and  N_24
REMARK                            x       y       z     vdW  Elec       q    Type
REMARK                         _______ _______ _______ _____ _____    ______ ____
ROOT
ATOM      1  N   UNL     1      24.703   3.567  51.587  0.00  0.00    +0.000 N 
ATOM      2  C   UNL     1      23.555   2.796  51.572  0.00  0.00    +0.000 A 
ATOM      3  N   UNL     1      22.498   3.210  50.931  0.00  0.00    +0.000 NA
ATOM      4  C   UNL     1      21.359   2.464  50.892  0.00  0.00    +0.000 A 
ATOM      5  N   UNL     1      21.188   1.295  51.412  0.00  0.00    +0.000 NA
ATOM      6  N   UNL     1      22.262   0.839  52.068  0.00  0.00    +0.000 N 
ATOM      7  C   UNL     1      22.320  -0.380  52.675  0.00  0.00    +0.000 A 
ATOM      8  C   UNL     1      23.552  -0.502  53.262  0.00  0.00    +0.000 A 
ATOM      9  C   UNL     1      24.256   0.734  53.073  0.00  0.00    +0.000 A 
ATOM     10  C   UNL     1      23.446   1.513  52.240  0.00  0.00    +0.000 A 
ATOM     11  H   UNL     1      25.394   3.296  52.234  0.00  0.00    +0.000 HD
ENDROOT
BRANCH   1  17
ATOM     12  N   UNL     1      25.868   8.124  48.581  0.00  0.00    +0.000 N 
ATOM     13  N   UNL     1      25.165   9.101  49.206  0.00  0.00    +0.000 NA
ATOM     14  C   UNL     1      24.524   8.452  50.180  0.00  0.00    +0.000 A 
ATOM     15  C   UNL     1      24.835   7.074  50.214  0.00  0.00    +0.000 A 
ATOM     16  C   UNL     1      24.450   5.973  51.008  0.00  0.00    +0.000 A 
ATOM     17  C   UNL     1      25.011   4.698  50.790  0.00  0.00    +0.000 A 
ATOM     18  C   UNL     1      25.951   4.565  49.757  0.00  0.00    +0.000 A 
ATOM     19  C   UNL     1      26.336   5.641  48.936  0.00  0.00    +0.000 A 
ATOM     20  C   UNL     1      25.750   6.889  49.183  0.00  0.00    +0.000 A 
BRANCH  12  21
ATOM     21  C   UNL     1      26.669   8.469  47.411  0.00  0.00    +0.000 C 
BRANCH  21  27
ATOM     22  F   UNL     1      22.584   7.356  44.965  0.00  0.00    +0.000 F 
ATOM     23  C   UNL     1      23.856   7.779  44.936  0.00  0.00    +0.000 A 
ATOM     24  C   UNL     1      24.450   8.071  43.714  0.00  0.00    +0.000 A 
ATOM     25  C   UNL     1      25.776   8.496  43.687  0.00  0.00    +0.000 A 
ATOM     26  C   UNL     1      26.491   8.630  44.881  0.00  0.00    +0.000 A 
ATOM     27  C   UNL     1      25.892   8.347  46.120  0.00  0.00    +0.000 A 
ATOM     28  C   UNL     1      24.556   7.909  46.131  0.00  0.00    +0.000 A 
ENDBRANCH  21  27
ENDBRANCH  12  21
ENDBRANCH   1  17
BRANCH   9  29
ATOM     29  C   UNL     1      25.585   1.005  53.727  0.00  0.00    +0.000 C 
BRANCH  29  30
ATOM     30  N   UNL     1      26.694   0.724  52.795  0.00  0.00    +0.000 N 
ATOM     31  C   UNL     1      27.578  -0.347  53.318  0.00  0.00    +0.000 C 
ATOM     32  C   UNL     1      28.645   0.077  54.364  0.00  0.00    +0.000 C 
ATOM     33  N   UNL     1      29.422   1.271  53.998  0.00  0.00    +0.000 N 
ATOM     34  C   UNL     1      28.500   2.347  53.606  0.00  0.00    +0.000 C 
ATOM     35  C   UNL     1      27.540   1.903  52.481  0.00  0.00    +0.000 C 
ATOM     36  H   UNL     1      26.231   0.431  51.934  0.00  0.00    +0.000 HD
ATOM     37  H   UNL     1      30.039   1.049  53.218  0.00  0.00    +0.000 HD
ATOM     38  H   UNL     1      29.981   1.573  54.796  0.00  0.00    +0.000 HD
ENDBRANCH  29  30
ENDBRANCH   9  29
TORSDOF 5
ENDMDL
MODEL 6
REMARK VINA RESULT:    -8.844      2.962      5.722
REMARK INTER + INTRA:         -12.438
REMARK INTER:                 -11.613
REMARK INTRA:                  -0.825
REMARK UNBOUND:                -1.009
REMARK  Name = 
REMARK  5 active torsions:
REMARK  status: ('A' for Active; 'I' for Inactive)
REMARK    1  A    between atoms: C_6  and  C_7
REMARK    2  A    between atoms: C_7  and  N_8
REMARK    3  A    between atoms: C_13  and  N_14
REMARK    4  A    between atoms: C_22  and  C_23
REMARK    5  A    between atoms: C_23  and  N_24
REMARK                            x       y       z     vdW  Elec       q    Type
REMARK                         _______ _______ _______ _____ _____    ______ ____
ROOT
ATOM      1  N   UNL     1      23.324   2.260  51.795  0.00  0.00    +0.000 N 
ATOM      2  C   UNL     1      23.773   1.208  52.573  0.00  0.00    +0.000 A 
ATOM      3  N   UNL     1      25.042   0.911  52.602  0.00  0.00    +0.000 NA
ATOM      4  C   UNL     1      25.509  -0.113  53.369  0.00  0.00    +0.000 A 
ATOM      5  N   UNL     1      24.815  -0.859  54.160  0.00  0.00    +0.000 NA
ATOM      6  N   UNL     1      23.508  -0.570  54.158  0.00  0.00    +0.000 N 
ATOM      7  C   UNL     1      22.589  -1.211  54.934  0.00  0.00    +0.000 A 
ATOM      8  C   UNL     1      21.357  -0.675  54.660  0.00  0.00    +0.000 A 
ATOM      9  C   UNL     1      21.519   0.288  53.608  0.00  0.00    +0.000 A 
ATOM     10  C   UNL     1      22.897   0.388  53.388  0.00  0.00    +0.000 A 
ATOM     11  H   UNL     1      22.349   2.315  51.667  0.00  0.00    +0.000 HD
ENDROOT
BRANCH   1  17
ATOM     12  N   UNL     1      26.408   6.107  49.178  0.00  0.00    +0.000 N 
ATOM     13  N   UNL     1      27.398   5.380  48.606  0.00  0.00    +0.000 NA
ATOM     14  C   UNL     1      27.146   4.134  49.009  0.00  0.00    +0.000 A 
ATOM     15  C   UNL     1      25.981   4.044  49.805  0.00  0.00    +0.000 A 
ATOM     16  C   UNL     1      25.290   3.006  50.466  0.00  0.00    +0.000 A 
ATOM     17  C   UNL     1      24.089   3.268  51.157  0.00  0.00    +0.000 A 
ATOM     18  C   UNL     1      23.618   4.589  51.171  0.00  0.00    +0.000 A 
ATOM     19  C   UNL     1      24.299   5.647  50.539  0.00  0.00    +0.000 A 
ATOM     20  C   UNL     1      25.491   5.343  49.868  0.00  0.00    +0.000 A 
BRANCH  12  21
ATOM     21  C   UNL     1      26.393   7.555  48.987  0.00  0.00    +0.000 C 
BRANCH  21  27
ATOM     22  F   UNL     1      23.331   7.905  45.193  0.00  0.00    +0.000 F 
ATOM     23  C   UNL     1      24.559   8.100  45.693  0.00  0.00    +0.000 A 
ATOM     24  C   UNL     1      25.552   8.633  44.879  0.00  0.00    +0.000 A 
ATOM     25  C   UNL     1      26.830   8.820  45.400  0.00  0.00    +0.000 A 
ATOM     26  C   UNL     1      27.101   8.477  46.728  0.00  0.00    +0.000 A 
ATOM     27  C   UNL     1      26.098   7.947  47.558  0.00  0.00    +0.000 A 
ATOM     28  C   UNL     1      24.816   7.755  47.017  0.00  0.00    +0.000 A 
ENDBRANCH  21  27
ENDBRANCH  12  21
ENDBRANCH   1  17
BRANCH   9  29
ATOM     29  C   UNL     1      20.342   0.958  52.950  0.00  0.00    +0.000 C 
BRANCH  29  30
ATOM     30  N   UNL     1      19.911   0.205  51.756  0.00  0.00    +0.000 N 
ATOM     31  C   UNL     1      20.144   0.985  50.515  0.00  0.00    +0.000 C 
ATOM     32  C   UNL     1      19.076   2.053  50.152  0.00  0.00    +0.000 C 
ATOM     33  N   UNL     1      17.686   1.579  50.225  0.00  0.00    +0.000 N 
ATOM     34  C   UNL     1      17.465   0.923  51.521  0.00  0.00    +0.000 C 
ATOM     35  C   UNL     1      18.486  -0.208  51.776  0.00  0.00    +0.000 C 
ATOM     36  H   UNL     1      20.483  -0.640  51.772  0.00  0.00    +0.000 HD
ATOM     37  H   UNL     1      17.512   0.915  49.472  0.00  0.00    +0.000 HD
ATOM     38  H   UNL     1      17.049   2.371  50.130  0.00  0.00    +0.000 HD
ENDBRANCH  29  30
ENDBRANCH   9  29
TORSDOF 5
ENDMDL
MODEL 7
REMARK VINA RESULT:    -8.799      6.121      9.414
REMARK INTER + INTRA:         -12.380
REMARK INTER:                 -11.840
REMARK INTRA:                  -0.540
REMARK UNBOUND:                -1.009
REMARK  Name = 
REMARK  5 active torsions:
REMARK  status: ('A' for Active; 'I' for Inactive)
REMARK    1  A    between atoms: C_6  and  C_7
REMARK    2  A    between atoms: C_7  and  N_8
REMARK    3  A    between atoms: C_13  and  N_14
REMARK    4  A    between atoms: C_22  and  C_23
REMARK    5  A    between atoms: C_23  and  N_24
REMARK                            x       y       z     vdW  Elec       q    Type
REMARK                         _______ _______ _______ _____ _____    ______ ____
ROOT
ATOM      1  N   UNL     1      19.051   0.489  51.868  0.00  0.00    +0.000 N 
ATOM      2  C   UNL     1      18.200   1.547  51.605  0.00  0.00    +0.000 A 
ATOM      3  N   UNL     1      18.613   2.773  51.765  0.00  0.00    +0.000 NA
ATOM      4  C   UNL     1      17.798   3.833  51.501  0.00  0.00    +0.000 A 
ATOM      5  N   UNL     1      16.593   3.779  51.042  0.00  0.00    +0.000 NA
ATOM      6  N   UNL     1      16.146   2.531  50.858  0.00  0.00    +0.000 N 
ATOM      7  C   UNL     1      14.913   2.233  50.360  0.00  0.00    +0.000 A 
ATOM      8  C   UNL     1      14.787   0.869  50.329  0.00  0.00    +0.000 A 
ATOM      9  C   UNL     1      15.971   0.303  50.911  0.00  0.00    +0.000 A 
ATOM     10  C   UNL     1      16.836   1.378  51.144  0.00  0.00    +0.000 A 
ATOM     11  H   UNL     1      18.630  -0.400  51.911  0.00  0.00    +0.000 HD
ENDROOT
BRANCH   1  17
ATOM     12  N   UNL     1      24.550   0.477  52.826  0.00  0.00    +0.000 N 
ATOM     13  N   UNL     1      24.669  -0.243  53.968  0.00  0.00    +0.000 NA
ATOM     14  C   UNL     1      23.407  -0.528  54.292  0.00  0.00    +0.000 A 
ATOM     15  C   UNL     1      22.476  -0.031  53.350  0.00  0.00    +0.000 A 
ATOM     16  C   UNL     1      21.072  -0.049  53.214  0.00  0.00    +0.000 A 
ATOM     17  C   UNL     1      20.451   0.522  52.085  0.00  0.00    +0.000 A 
ATOM     18  C   UNL     1      21.275   1.111  51.114  0.00  0.00    +0.000 A 
ATOM     19  C   UNL     1      22.676   1.162  51.235  0.00  0.00    +0.000 A 
ATOM     20  C   UNL     1      23.251   0.588  52.376  0.00  0.00    +0.000 A 
BRANCH  12  21
ATOM     21  C   UNL     1      25.756   1.009  52.197  0.00  0.00    +0.000 C 
BRANCH  21  27
ATOM     22  F   UNL     1      28.796  -2.736  52.994  0.00  0.00    +0.000 F 
ATOM     23  C   UNL     1      28.503  -1.442  53.179  0.00  0.00    +0.000 A 
ATOM     24  C   UNL     1      29.354  -0.651  53.942  0.00  0.00    +0.000 A 
ATOM     25  C   UNL     1      29.039   0.690  54.142  0.00  0.00    +0.000 A 
ATOM     26  C   UNL     1      27.880   1.228  53.574  0.00  0.00    +0.000 A 
ATOM     27  C   UNL     1      27.021   0.436  52.793  0.00  0.00    +0.000 A 
ATOM     28  C   UNL     1      27.347  -0.918  52.608  0.00  0.00    +0.000 A 
ENDBRANCH  21  27
ENDBRANCH  12  21
ENDBRANCH   1  17
BRANCH   9  29
ATOM     29  C   UNL     1      16.103  -1.173  51.180  0.00  0.00    +0.000 C 
BRANCH  29  30
ATOM     30  N   UNL     1      15.710  -1.488  52.567  0.00  0.00    +0.000 N 
ATOM     31  C   UNL     1      16.888  -1.510  53.469  0.00  0.00    +0.000 C 
ATOM     32  C   UNL     1      17.737  -2.811  53.477  0.00  0.00    +0.000 C 
ATOM     33  N   UNL     1      16.955  -4.052  53.599  0.00  0.00    +0.000 N 
ATOM     34  C   UNL     1      15.875  -4.043  52.603  0.00  0.00    +0.000 C 
ATOM     35  C   UNL     1      14.993  -2.780  52.719  0.00  0.00    +0.000 C 
ATOM     36  H   UNL     1      15.065  -0.740  52.822  0.00  0.00    +0.000 HD
ATOM     37  H   UNL     1      16.557  -4.113  54.535  0.00  0.00    +0.000 HD
ATOM     38  H   UNL     1      17.563  -4.855  53.437  0.00  0.00    +0.000 HD
ENDBRANCH  29  30
ENDBRANCH   9  29
TORSDOF 5
ENDMDL
MODEL 8
REMARK VINA RESULT:    -8.763      4.855      8.821
REMARK INTER + INTRA:         -12.334
REMARK INTER:                 -11.112
REMARK INTRA:                  -1.222
REMARK UNBOUND:                -1.009
REMARK  Name = 
REMARK  5 active torsions:
REMARK  status: ('A' for Active; 'I' for Inactive)
REMARK    1  A    between atoms: C_6  and  C_7
REMARK    2  A    between atoms: C_7  and  N_8
REMARK    3  A    between atoms: C_13  and  N_14
REMARK    4  A    between atoms: C_22  and  C_23
REMARK    5  A    between atoms: C_23  and  N_24
REMARK                            x       y       z     vdW  Elec       q    Type
REMARK                         _______ _______ _______ _____ _____    ______ ____
ROOT
ATOM      1  N   UNL     1      19.274   1.476  51.115  0.00  0.00    +0.000 N 
ATOM      2  C   UNL     1      18.599   0.534  51.869  0.00  0.00    +0.000 A 
ATOM      3  N   UNL     1      19.262  -0.288  52.633  0.00  0.00    +0.000 NA
ATOM      4  C   UNL     1      18.619  -1.218  53.394  0.00  0.00    +0.000 A 
ATOM      5  N   UNL     1      17.342  -1.378  53.495  0.00  0.00    +0.000 NA
ATOM      6  N   UNL     1      16.636  -0.539  52.728  0.00  0.00    +0.000 N 
ATOM      7  C   UNL     1      15.274  -0.510  52.691  0.00  0.00    +0.000 A 
ATOM      8  C   UNL     1      14.895   0.448  51.788  0.00  0.00    +0.000 A 
ATOM      9  C   UNL     1      16.083   0.979  51.184  0.00  0.00    +0.000 A 
ATOM     10  C   UNL     1      17.155   0.397  51.869  0.00  0.00    +0.000 A 
ATOM     11  H   UNL     1      18.743   1.935  50.424  0.00  0.00    +0.000 HD
ENDROOT
BRANCH   1  17
ATOM     12  N   UNL     1      24.593   3.087  51.639  0.00  0.00    +0.000 N 
ATOM     13  N   UNL     1      24.525   4.118  52.515  0.00  0.00    +0.000 NA
ATOM     14  C   UNL     1      23.218   4.241  52.754  0.00  0.00    +0.000 A 
ATOM     15  C   UNL     1      22.445   3.275  52.070  0.00  0.00    +0.000 A 
ATOM     16  C   UNL     1      21.072   2.967  51.971  0.00  0.00    +0.000 A 
ATOM     17  C   UNL     1      20.634   1.865  51.209  0.00  0.00    +0.000 A 
ATOM     18  C   UNL     1      21.607   1.098  50.550  0.00  0.00    +0.000 A 
ATOM     19  C   UNL     1      22.981   1.396  50.614  0.00  0.00    +0.000 A 
ATOM     20  C   UNL     1      23.372   2.503  51.378  0.00  0.00    +0.000 A 
BRANCH  12  21
ATOM     21  C   UNL     1      25.896   2.694  51.111  0.00  0.00    +0.000 C 
BRANCH  21  27
ATOM     22  F   UNL     1      29.309   1.629  54.445  0.00  0.00    +0.000 F 
ATOM     23  C   UNL     1      28.316   1.208  53.650  0.00  0.00    +0.000 A 
ATOM     24  C   UNL     1      27.977  -0.140  53.638  0.00  0.00    +0.000 A 
ATOM     25  C   UNL     1      26.954  -0.576  52.800  0.00  0.00    +0.000 A 
ATOM     26  C   UNL     1      26.278   0.340  51.987  0.00  0.00    +0.000 A 
ATOM     27  C   UNL     1      26.610   1.706  52.004  0.00  0.00    +0.000 A 
ATOM     28  C   UNL     1      27.651   2.129  52.847  0.00  0.00    +0.000 A 
ENDBRANCH  21  27
ENDBRANCH  12  21
ENDBRANCH   1  17
BRANCH   9  29
ATOM     29  C   UNL     1      16.030   1.945  50.030  0.00  0.00    +0.000 C 
BRANCH  29  30
ATOM     30  N   UNL     1      16.321   3.319  50.483  0.00  0.00    +0.000 N 
ATOM     31  C   UNL     1      15.072   4.068  50.765  0.00  0.00    +0.000 C 
ATOM     32  C   UNL     1      14.341   4.691  49.543  0.00  0.00    +0.000 C 
ATOM     33  N   UNL     1      15.212   5.441  48.626  0.00  0.00    +0.000 N 
ATOM     34  C   UNL     1      16.374   4.613  48.276  0.00  0.00    +0.000 C 
ATOM     35  C   UNL     1      17.129   4.118  49.529  0.00  0.00    +0.000 C 
ATOM     36  H   UNL     1      16.873   3.191  51.332  0.00  0.00    +0.000 HD
ATOM     37  H   UNL     1      15.527   6.298  49.080  0.00  0.00    +0.000 HD
ATOM     38  H   UNL     1      14.693   5.678  47.780  0.00  0.00    +0.000 HD
ENDBRANCH  29  30
ENDBRANCH   9  29
TORSDOF 5
ENDMDL
MODEL 9
REMARK VINA RESULT:    -8.718      1.540      2.018
REMARK INTER + INTRA:         -12.275
REMARK INTER:                 -11.484
REMARK INTRA:                  -0.791
REMARK UNBOUND:                -1.009
REMARK  Name = 
REMARK  5 active torsions:
REMARK  status: ('A' for Active; 'I' for Inactive)
REMARK    1  A    between atoms: C_6  and  C_7
REMARK    2  A    between atoms: C_7  and  N_8
REMARK    3  A    between atoms: C_13  and  N_14
REMARK    4  A    between atoms: C_22  and  C_23
REMARK    5  A    between atoms: C_23  and  N_24
REMARK                            x       y       z     vdW  Elec       q    Type
REMARK                         _______ _______ _______ _____ _____    ______ ____
ROOT
ATOM      1  N   UNL     1      24.720   3.937  51.008  0.00  0.00    +0.000 N 
ATOM      2  C   UNL     1      23.419   3.788  51.454  0.00  0.00    +0.000 A 
ATOM      3  N   UNL     1      22.619   4.816  51.490  0.00  0.00    +0.000 NA
ATOM      4  C   UNL     1      21.330   4.693  51.915  0.00  0.00    +0.000 A 
ATOM      5  N   UNL     1      20.742   3.603  52.278  0.00  0.00    +0.000 NA
ATOM      6  N   UNL     1      21.539   2.528  52.241  0.00  0.00    +0.000 N 
ATOM      7  C   UNL     1      21.127   1.268  52.558  0.00  0.00    +0.000 A 
ATOM      8  C   UNL     1      22.202   0.427  52.432  0.00  0.00    +0.000 A 
ATOM      9  C   UNL     1      23.349   1.223  52.097  0.00  0.00    +0.000 A 
ATOM     10  C   UNL     1      22.868   2.522  51.897  0.00  0.00    +0.000 A 
ATOM     11  H   UNL     1      25.323   3.179  51.180  0.00  0.00    +0.000 HD
ENDROOT
BRANCH   1  17
ATOM     12  N   UNL     1      26.947   8.396  48.494  0.00  0.00    +0.000 N 
ATOM     13  N   UNL     1      26.409   9.440  49.170  0.00  0.00    +0.000 NA
ATOM     14  C   UNL     1      25.591   8.857  50.048  0.00  0.00    +0.000 A 
ATOM     15  C   UNL     1      25.624   7.446  49.970  0.00  0.00    +0.000 A 
ATOM     16  C   UNL     1      24.980   6.384  50.640  0.00  0.00    +0.000 A 
ATOM     17  C   UNL     1      25.295   5.044  50.334  0.00  0.00    +0.000 A 
ATOM     18  C   UNL     1      26.257   4.809  49.340  0.00  0.00    +0.000 A 
ATOM     19  C   UNL     1      26.898   5.850  48.641  0.00  0.00    +0.000 A 
ATOM     20  C   UNL     1      26.551   7.166  48.974  0.00  0.00    +0.000 A 
BRANCH  12  21
ATOM     21  C   UNL     1      27.876   8.667  47.401  0.00  0.00    +0.000 C 
BRANCH  21  27
ATOM     22  F   UNL     1      31.966   6.100  46.640  0.00  0.00    +0.000 F 
ATOM     23  C   UNL     1      31.314   7.025  47.357  0.00  0.00    +0.000 A 
ATOM     24  C   UNL     1      31.951   7.630  48.434  0.00  0.00    +0.000 A 
ATOM     25  C   UNL     1      31.264   8.581  49.184  0.00  0.00    +0.000 A 
ATOM     26  C   UNL     1      29.949   8.920  48.847  0.00  0.00    +0.000 A 
ATOM     27  C   UNL     1      29.303   8.319  47.753  0.00  0.00    +0.000 A 
ATOM     28  C   UNL     1      30.006   7.354  47.011  0.00  0.00    +0.000 A 
ENDBRANCH  21  27
ENDBRANCH  12  21
ENDBRANCH   1  17
BRANCH   9  29
ATOM     29  C   UNL     1      24.736   0.641  52.036  0.00  0.00    +0.000 C 
BRANCH  29  30
ATOM     30  N   UNL     1      25.262   0.398  53.393  0.00  0.00    +0.000 N 
ATOM     31  C   UNL     1      26.142   1.508  53.837  0.00  0.00    +0.000 C 
ATOM     32  C   UNL     1      27.609   1.480  53.329  0.00  0.00    +0.000 C 
ATOM     33  N   UNL     1      28.284   0.181  53.474  0.00  0.00    +0.000 N 
ATOM     34  C   UNL     1      27.430  -0.873  52.909  0.00  0.00    +0.000 C 
ATOM     35  C   UNL     1      26.019  -0.871  53.536  0.00  0.00    +0.000 C 
ATOM     36  H   UNL     1      24.428   0.333  53.978  0.00  0.00    +0.000 HD
ATOM     37  H   UNL     1      28.451  -0.007  54.462  0.00  0.00    +0.000 HD
ATOM     38  H   UNL     1      29.175   0.202  52.979  0.00  0.00    +0.000 HD
ENDBRANCH  29  30
ENDBRANCH   9  29
TORSDOF 5
ENDMDL
