
     RDKit          3D

 55 58  0  0  0  0  0  0  0  0999 V2000
    0.9559   -0.6685    3.4773 C   0  0  0  0  0  0  0  0  0  0  0  0
    0.1173   -0.5704    2.3304 O   0  0  0  0  0  0  0  0  0  0  0  0
    0.5812   -0.4851    1.0072 C   0  0  0  0  0  0  0  0  0  0  0  0
    1.9524   -0.5428    0.6913 C   0  0  0  0  0  0  0  0  0  0  0  0
    2.3825   -0.4463   -0.6444 C   0  0  0  0  0  0  0  0  0  0  0  0
    3.7439   -0.5043   -1.0178 C   0  0  0  0  0  0  0  0  0  0  0  0
    4.7770   -0.7719   -0.0553 N   0  0  0  0  0  0  0  0  0  0  0  0
    6.0948   -0.1955   -0.1277 C   0  0  0  0  0  0  0  0  0  0  0  0
    6.3085    1.0536   -0.7391 C   0  0  0  0  0  0  0  0  0  0  0  0
    7.5912    1.6062   -0.7854 C   0  0  0  0  0  0  0  0  0  0  0  0
    8.6742    0.9290   -0.2160 C   0  0  0  0  0  0  0  0  0  0  0  0
   10.2736    1.6585   -0.2920 Cl  0  0  0  0  0  0  0  0  0  0  0  0
    8.4686   -0.3066    0.4230 C   0  0  0  0  0  0  0  0  0  0  0  0
    9.8114   -1.1753    1.1651 Cl  0  0  0  0  0  0  0  0  0  0  0  0
    7.1818   -0.8653    0.4651 C   0  0  0  0  0  0  0  0  0  0  0  0
    6.9948   -2.0635    1.0700 F   0  0  0  0  0  0  0  0  0  0  0  0
    4.0799   -0.3553   -2.3280 N   0  0  0  0  0  0  0  0  0  0  0  0
    3.1400   -0.1543   -3.2852 C   0  0  0  0  0  0  0  0  0  0  0  0
    1.8256   -0.1083   -2.9515 N   0  0  0  0  0  0  0  0  0  0  0  0
    1.4258   -0.2497   -1.6625 C   0  0  0  0  0  0  0  0  0  0  0  0
    0.0655   -0.1956   -1.3498 C   0  0  0  0  0  0  0  0  0  0  0  0
   -0.3639   -0.3295   -0.0176 C   0  0  0  0  0  0  0  0  0  0  0  0
   -1.7211   -0.3155    0.3324 O   0  0  0  0  0  0  0  0  0  0  0  0
   -2.7998   -0.0582   -0.5646 C   0  0  0  0  0  0  0  0  0  0  0  0
   -4.1462   -0.2364    0.1670 C   0  0  2  0  0  0  0  0  0  0  0  0
   -5.2949   -0.2930   -0.8535 C   0  0  0  0  0  0  0  0  0  0  0  0
   -6.5545   -0.6744   -0.1859 N   0  0  0  0  0  0  0  0  0  0  0  0
   -7.6625   -0.6612   -1.1554 C   0  0  0  0  0  0  0  0  0  0  0  0
   -6.8940    0.1150    1.0347 C   0  0  0  0  0  0  0  0  0  0  0  0
   -5.8120    1.0687    1.4857 C   0  0  0  0  0  0  0  0  0  0  0  0
   -6.1358    2.0471    2.2148 O   0  0  0  0  0  0  0  0  0  0  0  0
   -4.4300    0.8419    1.1326 N   0  0  0  0  0  0  0  0  0  0  0  0
   -3.3611    1.4561    1.9382 C   0  0  0  0  0  0  0  0  0  0  0  0
    1.6362    0.2060    3.5277 H   0  0  0  0  0  0  0  0  0  0  0  0
    0.3243   -0.6770    4.3872 H   0  0  0  0  0  0  0  0  0  0  0  0
    1.5452   -1.6091    3.4424 H   0  0  0  0  0  0  0  0  0  0  0  0
    2.6743   -0.6424    1.4879 H   0  0  0  0  0  0  0  0  0  0  0  0
    4.5846   -1.4751    0.6925 H   0  0  0  0  0  0  0  0  0  0  0  0
    5.4844    1.6090   -1.1680 H   0  0  0  0  0  0  0  0  0  0  0  0
    7.7423    2.5666   -1.2642 H   0  0  0  0  0  0  0  0  0  0  0  0
    3.4382   -0.0372   -4.3167 H   0  0  0  0  0  0  0  0  0  0  0  0
   -0.6483   -0.0539   -2.1503 H   0  0  0  0  0  0  0  0  0  0  0  0
   -2.7179    0.9711   -0.9750 H   0  0  0  0  0  0  0  0  0  0  0  0
   -2.7423   -0.7853   -1.4025 H   0  0  0  0  0  0  0  0  0  0  0  0
   -4.1174   -1.2058    0.7127 H   0  0  0  0  0  0  0  0  0  0  0  0
   -5.3984    0.6981   -1.3547 H   0  0  0  0  0  0  0  0  0  0  0  0
   -5.0590   -1.0533   -1.6322 H   0  0  0  0  0  0  0  0  0  0  0  0
   -7.8349    0.3689   -1.5501 H   0  0  0  0  0  0  0  0  0  0  0  0
   -7.4434   -1.3480   -2.0071 H   0  0  0  0  0  0  0  0  0  0  0  0
   -8.5933   -1.0301   -0.6683 H   0  0  0  0  0  0  0  0  0  0  0  0
   -7.8487    0.6922    0.9215 H   0  0  0  0  0  0  0  0  0  0  0  0
   -7.0645   -0.6117    1.8652 H   0  0  0  0  0  0  0  0  0  0  0  0
   -2.8770    0.6821    2.5699 H   0  0  0  0  0  0  0  0  0  0  0  0
   -3.7474    2.2541    2.6045 H   0  0  0  0  0  0  0  0  0  0  0  0
   -2.6069    1.9320    1.2820 H   0  0  0  0  0  0  0  0  0  0  0  0
  1  2  1  0
  2  3  1  0
  3  4  2  0
  4  5  1  0
  5  6  2  0
  6  7  1  0
  7  8  1  0
  8  9  2  0
  9 10  1  0
 10 11  2  0
 11 12  1  0
 11 13  1  0
 13 14  1  0
 13 15  2  0
 15 16  1  0
  6 17  1  0
 17 18  2  0
 18 19  1  0
 19 20  2  0
 20 21  1  0
 21 22  2  0
 22 23  1  0
 23 24  1  0
 24 25  1  0
 25 26  1  0
 26 27  1  0
 27 28  1  0
 27 29  1  0
 29 30  1  0
 30 31  2  0
 30 32  1  0
 32 33  1  0
 22  3  1  0
 32 25  1  0
 20  5  1  0
 15  8  1  0
  1 34  1  0
  1 35  1  0
  1 36  1  0
  4 37  1  0
  7 38  1  0
  9 39  1  0
 10 40  1  0
 18 41  1  0
 21 42  1  0
 24 43  1  0
 24 44  1  0
 25 45  1  1
 26 46  1  0
 26 47  1  0
 28 48  1  0
 28 49  1  0
 28 50  1  0
 29 51  1  0
 29 52  1  0
 33 53  1  0
 33 54  1  0
 33 55  1  0
M  END
