
     RDKit          3D

 44 47  0  0  0  0  0  0  0  0999 V2000
   -3.4939   -3.4229   -0.0712 C   0  0  0  0  0  0  0  0  0  0  0  0
   -4.1288   -2.1608    0.1081 O   0  0  0  0  0  0  0  0  0  0  0  0
   -3.4537   -0.9316    0.1905 C   0  0  0  0  0  0  0  0  0  0  0  0
   -2.0527   -0.8496    0.1134 C   0  0  0  0  0  0  0  0  0  0  0  0
   -1.4055    0.3901    0.1834 C   0  0  0  0  0  0  0  0  0  0  0  0
    0.0280    0.4873    0.1241 N   0  0  0  0  0  0  0  0  0  0  0  0
    0.8515   -0.3453   -0.7094 C   0  0  0  0  0  0  0  0  0  0  0  0
    0.3131   -1.0634   -1.7384 N   0  0  0  0  0  0  0  0  0  0  0  0
    1.0898   -1.8372   -2.5548 C   0  0  0  0  0  0  0  0  0  0  0  0
    2.4392   -1.9040   -2.3650 N   0  0  0  0  0  0  0  0  0  0  0  0
    3.0057   -1.1939   -1.3579 C   0  0  0  0  0  0  0  0  0  0  0  0
    4.3694   -1.1739   -1.0586 C   0  0  0  0  0  0  0  0  0  0  0  0
    4.6556   -0.3514    0.0355 C   0  0  0  0  0  0  0  0  0  0  0  0
    5.9895   -0.1098    0.6093 C   0  0  0  0  0  0  0  0  0  0  0  0
    7.1912   -0.6534    0.1658 C   0  0  0  0  0  0  0  0  0  0  0  0
    8.2976   -0.2358    0.9157 C   0  0  0  0  0  0  0  0  0  0  0  0
    7.9766    0.6345    1.9488 C   0  0  0  0  0  0  0  0  0  0  0  0
    6.3144    0.8839    1.9284 S   0  0  0  0  0  0  0  0  0  0  0  0
    3.2157    0.3353    0.6125 S   0  0  0  0  0  0  0  0  0  0  0  0
    2.2316   -0.4099   -0.5274 C   0  0  0  0  0  0  0  0  0  0  0  0
   -2.1640    1.5484    0.3758 C   0  0  0  0  0  0  0  0  0  0  0  0
   -3.5691    1.4928    0.4578 C   0  0  0  0  0  0  0  0  0  0  0  0
   -4.3257    2.6618    0.6376 O   0  0  0  0  0  0  0  0  0  0  0  0
   -3.7873    3.9754    0.7509 C   0  0  0  0  0  0  0  0  0  0  0  0
   -4.2186    0.2350    0.3576 C   0  0  0  0  0  0  0  0  0  0  0  0
   -5.6160    0.0697    0.4201 O   0  0  0  0  0  0  0  0  0  0  0  0
   -6.5867    1.0985    0.5780 C   0  0  0  0  0  0  0  0  0  0  0  0
   -2.8160   -3.6342    0.7826 H   0  0  0  0  0  0  0  0  0  0  0  0
   -2.9243   -3.4322   -1.0246 H   0  0  0  0  0  0  0  0  0  0  0  0
   -4.2688   -4.2154   -0.1129 H   0  0  0  0  0  0  0  0  0  0  0  0
   -1.4613   -1.7493    0.0233 H   0  0  0  0  0  0  0  0  0  0  0  0
    0.4856    1.2653    0.6511 H   0  0  0  0  0  0  0  0  0  0  0  0
    0.6319   -2.3978   -3.3579 H   0  0  0  0  0  0  0  0  0  0  0  0
    5.1098   -1.7336   -1.6143 H   0  0  0  0  0  0  0  0  0  0  0  0
    7.2756   -1.3314   -0.6726 H   0  0  0  0  0  0  0  0  0  0  0  0
    9.3087   -0.5608    0.7095 H   0  0  0  0  0  0  0  0  0  0  0  0
    8.6773    1.0745    2.6453 H   0  0  0  0  0  0  0  0  0  0  0  0
   -1.6458    2.4948    0.4490 H   0  0  0  0  0  0  0  0  0  0  0  0
   -3.1175    4.0392    1.6343 H   0  0  0  0  0  0  0  0  0  0  0  0
   -3.2323    4.2422   -0.1732 H   0  0  0  0  0  0  0  0  0  0  0  0
   -4.6193    4.6966    0.8847 H   0  0  0  0  0  0  0  0  0  0  0  0
   -7.5967    0.6403    0.5807 H   0  0  0  0  0  0  0  0  0  0  0  0
   -6.5328    1.8122   -0.2708 H   0  0  0  0  0  0  0  0  0  0  0  0
   -6.4410    1.6196    1.5475 H   0  0  0  0  0  0  0  0  0  0  0  0
  1  2  1  0
  2  3  1  0
  3  4  2  0
  4  5  1  0
  5  6  1  0
  6  7  1  0
  7  8  2  0
  8  9  1  0
  9 10  2  0
 10 11  1  0
 11 12  1  0
 12 13  2  0
 13 14  1  0
 14 15  2  0
 15 16  1  0
 16 17  2  0
 17 18  1  0
 13 19  1  0
 19 20  1  0
  5 21  2  0
 21 22  1  0
 22 23  1  0
 23 24  1  0
 22 25  2  0
 25 26  1  0
 26 27  1  0
 25  3  1  0
 20  7  1  0
 20 11  2  0
 18 14  1  0
  1 28  1  0
  1 29  1  0
  1 30  1  0
  4 31  1  0
  6 32  1  0
  9 33  1  0
 12 34  1  0
 15 35  1  0
 16 36  1  0
 17 37  1  0
 21 38  1  0
 24 39  1  0
 24 40  1  0
 24 41  1  0
 27 42  1  0
 27 43  1  0
 27 44  1  0
M  END
