
     RDKit          3D

 45 48  0  0  0  0  0  0  0  0999 V2000
   -3.0794   -4.2801    0.7879 C   0  0  0  0  0  0  0  0  0  0  0  0
   -2.8534   -2.9636    0.2949 O   0  0  0  0  0  0  0  0  0  0  0  0
   -1.6333   -2.2735    0.3877 C   0  0  0  0  0  0  0  0  0  0  0  0
   -0.4974   -2.8547    0.9831 C   0  0  0  0  0  0  0  0  0  0  0  0
    0.7018   -2.1412    1.0728 C   0  0  0  0  0  0  0  0  0  0  0  0
    1.7912   -2.7239    1.6369 N   0  0  0  0  0  0  0  0  0  0  0  0
    2.9691   -2.0586    1.7336 C   0  0  0  0  0  0  0  0  0  0  0  0
    3.0721   -0.7868    1.2739 N   0  0  0  0  0  0  0  0  0  0  0  0
    2.0181   -0.1474    0.6958 C   0  0  0  0  0  0  0  0  0  0  0  0
    2.1700    1.2200    0.2776 N   0  0  0  0  0  0  0  0  0  0  0  0
    3.4007    1.7574   -0.2410 C   0  0  0  0  0  0  0  0  0  0  0  0
    4.3208    0.9384   -0.9230 C   0  0  0  0  0  0  0  0  0  0  0  0
    5.5013    1.4793   -1.4390 C   0  0  0  0  0  0  0  0  0  0  0  0
    5.7715    2.8411   -1.2922 C   0  0  0  0  0  0  0  0  0  0  0  0
    4.8561    3.6702   -0.6362 C   0  0  0  0  0  0  0  0  0  0  0  0
    5.2020    5.3829   -0.4670 Cl  0  0  0  0  0  0  0  0  0  0  0  0
    3.6719    3.1325   -0.1140 C   0  0  0  0  0  0  0  0  0  0  0  0
    2.7894    3.9453    0.5217 F   0  0  0  0  0  0  0  0  0  0  0  0
    0.7841   -0.8235    0.5760 C   0  0  0  0  0  0  0  0  0  0  0  0
   -0.3448   -0.2516   -0.0368 C   0  0  0  0  0  0  0  0  0  0  0  0
   -1.5478   -0.9670   -0.1292 C   0  0  0  0  0  0  0  0  0  0  0  0
   -2.6828   -0.3521   -0.7528 N   0  0  0  0  0  0  0  0  0  0  0  0
   -4.0579   -0.7205   -1.1469 C   0  0  0  0  0  0  0  0  0  0  0  0
   -4.4171    0.6012   -1.7429 C   0  0  0  0  0  0  0  0  0  0  0  0
   -3.0169    0.9577   -1.3481 C   0  0  0  0  0  0  0  0  0  0  0  0
   -2.9470    2.0712   -0.3329 C   0  0  0  0  0  0  0  0  0  0  0  0
   -3.3845    1.8736    1.0135 N   0  0  0  0  0  0  0  0  0  0  0  0
   -2.5231    3.2036   -0.6861 O   0  0  0  0  0  0  0  0  0  0  0  0
   -4.1315   -4.5663    0.5848 H   0  0  0  0  0  0  0  0  0  0  0  0
   -2.4086   -5.0006    0.2746 H   0  0  0  0  0  0  0  0  0  0  0  0
   -2.9085   -4.3118    1.8847 H   0  0  0  0  0  0  0  0  0  0  0  0
   -0.5354   -3.8614    1.3791 H   0  0  0  0  0  0  0  0  0  0  0  0
    3.8254   -2.5400    2.1854 H   0  0  0  0  0  0  0  0  0  0  0  0
    1.3814    1.8805    0.4583 H   0  0  0  0  0  0  0  0  0  0  0  0
    4.1223   -0.1156   -1.0706 H   0  0  0  0  0  0  0  0  0  0  0  0
    6.2049    0.8425   -1.9590 H   0  0  0  0  0  0  0  0  0  0  0  0
    6.6876    3.2526   -1.6964 H   0  0  0  0  0  0  0  0  0  0  0  0
   -0.3010    0.7408   -0.4624 H   0  0  0  0  0  0  0  0  0  0  0  0
   -4.0495   -1.5408   -1.8987 H   0  0  0  0  0  0  0  0  0  0  0  0
   -4.6769   -0.9669   -0.2556 H   0  0  0  0  0  0  0  0  0  0  0  0
   -5.2160    1.1287   -1.1761 H   0  0  0  0  0  0  0  0  0  0  0  0
   -4.5592    0.5551   -2.8446 H   0  0  0  0  0  0  0  0  0  0  0  0
   -2.3683    1.1606   -2.2310 H   0  0  0  0  0  0  0  0  0  0  0  0
   -3.3309    2.6561    1.7030 H   0  0  0  0  0  0  0  0  0  0  0  0
   -3.7706    0.9565    1.3274 H   0  0  0  0  0  0  0  0  0  0  0  0
  1  2  1  0
  2  3  1  0
  3  4  2  0
  4  5  1  0
  5  6  2  0
  6  7  1  0
  7  8  2  0
  8  9  1  0
  9 10  1  0
 10 11  1  0
 11 12  2  0
 12 13  1  0
 13 14  2  0
 14 15  1  0
 15 16  1  0
 15 17  2  0
 17 18  1  0
  9 19  2  0
 19 20  1  0
 20 21  2  0
 21 22  1  0
 22 23  1  0
 23 24  1  0
 24 25  1  0
 25 26  1  0
 26 27  1  0
 26 28  2  0
 21  3  1  0
 25 22  1  0
 19  5  1  0
 17 11  1  0
  1 29  1  0
  1 30  1  0
  1 31  1  0
  4 32  1  0
  7 33  1  0
 10 34  1  0
 12 35  1  0
 13 36  1  0
 14 37  1  0
 20 38  1  0
 23 39  1  0
 23 40  1  0
 24 41  1  0
 24 42  1  0
 25 43  1  0
 27 44  1  0
 27 45  1  0
M  END
