REMARK  Name = 
REMARK  8 active torsions:
REMARK  status: ('A' for Active; 'I' for Inactive)
REMARK    1  A    between atoms: C_1  and  O_2
REMARK    2  A    between atoms: O_2  and  C_3
REMARK    3  A    between atoms: C_6  and  N_7
REMARK    4  A    between atoms: N_7  and  C_8
REMARK    5  A    between atoms: C_21  and  O_22
REMARK    6  A    between atoms: O_22  and  C_23
REMARK    7  A    between atoms: C_23  and  C_24
REMARK    8  A    between atoms: C_27  and  C_28
REMARK                            x       y       z     vdW  Elec       q    Type
REMARK                         _______ _______ _______ _____ _____    ______ ____
ROOT
ATOM      1  C   UNL     1       3.276   2.487  -2.040  0.00  0.00    +0.000 A 
ATOM      2  C   UNL     1       4.176   3.535  -1.880  0.00  0.00    +0.000 A 
ATOM      3  C   UNL     1       5.384   3.534  -2.604  0.00  0.00    +0.000 A 
ATOM      4  C   UNL     1       6.367   4.531  -2.528  0.00  0.00    +0.000 A 
ATOM      5  N   UNL     1       7.396   4.562  -3.398  0.00  0.00    +0.000 NA
ATOM      6  C   UNL     1       7.463   3.577  -4.308  0.00  0.00    +0.000 A 
ATOM      7  N   UNL     1       6.627   2.537  -4.393  0.00  0.00    +0.000 NA
ATOM      8  C   UNL     1       5.617   2.518  -3.535  0.00  0.00    +0.000 A 
ATOM      9  C   UNL     1       4.793   1.399  -3.510  0.00  0.00    +0.000 A 
ATOM     10  C   UNL     1       3.725   1.301  -2.624  0.00  0.00    +0.000 A 
ENDROOT
BRANCH   1  12
ATOM     11  C   UNL     1       1.457   3.945  -2.202  0.00  0.00    +0.000 C 
ATOM     12  O   UNL     1       1.952   2.672  -1.721  0.00  0.00    +0.000 OA
ENDBRANCH   1  12
BRANCH   4  13
ATOM     13  N   UNL     1       6.388   5.462  -1.471  0.00  0.00    +0.000 N 
ATOM     14  H   UNL     1       5.939   5.211  -0.632  0.00  0.00    +0.000 HD
BRANCH  13  15
ATOM     15  C   UNL     1       7.008   6.726  -1.529  0.00  0.00    +0.000 A 
ATOM     16  C   UNL     1       6.992   7.484  -2.706  0.00  0.00    +0.000 A 
ATOM     17  C   UNL     1       7.609   8.732  -2.760  0.00  0.00    +0.000 A 
ATOM     18  C   UNL     1       8.240   9.245  -1.627  0.00  0.00    +0.000 A 
ATOM     19 CL   UNL     1       9.021  10.777  -1.775  0.00  0.00    +0.000 Cl
ATOM     20  C   UNL     1       8.223   8.515  -0.432  0.00  0.00    +0.000 A 
ATOM     21 CL   UNL     1       8.978   9.096   1.010  0.00  0.00    +0.000 Cl
ATOM     22  C   UNL     1       7.595   7.269  -0.379  0.00  0.00    +0.000 A 
ENDBRANCH  13  15
ENDBRANCH   4  13
BRANCH  10  23
ATOM     23  O   UNL     1       3.171   0.104  -2.244  0.00  0.00    +0.000 OA
BRANCH  23  24
ATOM     24  C   UNL     1       3.927  -1.113  -2.493  0.00  0.00    +0.000 C 
BRANCH  24  25
ATOM     25  C   UNL     1       5.325  -1.261  -1.810  0.00  0.00    +0.000 C 
ATOM     26  C   UNL     1       5.353  -1.335  -0.265  0.00  0.00    +0.000 C 
ATOM     27  N   UNL     1       5.128  -2.685   0.271  0.00  0.00    +0.000 N 
ATOM     28  C   UNL     1       4.674  -2.978   1.553  0.00  0.00    +0.000 C 
ATOM     29  C   UNL     1       4.127  -1.863   2.408  0.00  0.00    +0.000 C 
ATOM     30  O   UNL     1       4.728  -4.115   2.028  0.00  0.00    +0.000 OA
ATOM     31  C   UNL     1       5.934  -3.715  -0.381  0.00  0.00    +0.000 C 
ATOM     32  C   UNL     1       5.814  -3.631  -1.903  0.00  0.00    +0.000 C 
ATOM     33  O   UNL     1       6.105  -2.325  -2.406  0.00  0.00    +0.000 OA
ENDBRANCH  24  25
ENDBRANCH  23  24
ENDBRANCH  10  23
TORSDOF 6
