REMARK  Name = 
REMARK  9 active torsions:
REMARK  status: ('A' for Active; 'I' for Inactive)
REMARK    1  A    between atoms: C_1  and  C_2
REMARK    2  A    between atoms: C_2  and  C_3
REMARK    3  A    between atoms: C_9  and  N_10
REMARK    4  A    between atoms: C_12  and  C_13
REMARK    5  A    between atoms: C_21  and  C_22
REMARK    6  A    between atoms: N_27  and  C_28
REMARK    7  A    between atoms: C_31  and  N_32
REMARK    8  A    between atoms: N_35  and  C_36
REMARK    9  A    between atoms: C_39  and  C_40
REMARK                            x       y       z     vdW  Elec       q    Type
REMARK                         _______ _______ _______ _____ _____    ______ ____
ROOT
ATOM      1  N   UNL     1       5.196   2.465   0.204  0.00  0.00    +0.000 N 
ATOM      2  C   UNL     1       6.258   1.485   0.378  0.00  0.00    +0.000 C 
ATOM      3  C   UNL     1       7.260   1.421  -0.740  0.00  0.00    +0.000 C 
ATOM      4  C   UNL     1       7.211   2.167  -1.860  0.00  0.00    +0.000 C 
ATOM      5  C   UNL     1       8.201   2.084  -2.991  0.00  0.00    +0.000 C 
ATOM      6  C   UNL     1       6.077   3.110  -1.964  0.00  0.00    +0.000 A 
ATOM      7  C   UNL     1       5.873   3.929  -3.062  0.00  0.00    +0.000 A 
ATOM      8  N   UNL     1       4.832   4.771  -3.210  0.00  0.00    +0.000 NA
ATOM      9  C   UNL     1       3.971   4.822  -2.191  0.00  0.00    +0.000 A 
ATOM     10  N   UNL     1       2.861   5.646  -2.354  0.00  0.00    +0.000 N 
ATOM     11  N   UNL     1       4.093   4.086  -1.077  0.00  0.00    +0.000 NA
ATOM     12  C   UNL     1       5.119   3.224  -0.956  0.00  0.00    +0.000 A 
ATOM     13  H   UNL     1       2.485   5.691  -3.262  0.00  0.00    +0.000 HD
ENDROOT
BRANCH   1  20
ATOM     14  C   UNL     1       1.003   0.875   2.286  0.00  0.00    +0.000 C 
ATOM     15  O   UNL     1       0.230   0.983   3.238  0.00  0.00    +0.000 OA
ATOM     16  N   UNL     1       2.352   1.190   2.391  0.00  0.00    +0.000 N 
ATOM     17  C   UNL     1       2.915   1.495   3.702  0.00  0.00    +0.000 C 
ATOM     18  C   UNL     1       3.614   2.849   3.688  0.00  0.00    +0.000 C 
ATOM     19  C   UNL     1       4.674   2.914   2.590  0.00  0.00    +0.000 C 
ATOM     20  C   UNL     1       4.106   2.528   1.208  0.00  0.00    +0.000 C 
ATOM     21  C   UNL     1       3.317   1.195   1.285  0.00  0.00    +0.000 C 
BRANCH  14  23
ATOM     22  C   UNL     1      -0.938  -0.041   0.940  0.00  0.00    +0.000 C 
ATOM     23  C   UNL     1       0.532   0.347   0.940  0.00  0.00    +0.000 C 
ENDBRANCH  14  23
ENDBRANCH   1  20
BRANCH   3  24
ATOM     24  C   UNL     1       8.330   0.434  -0.473  0.00  0.00    +0.000 A 
ATOM     25  C   UNL     1       9.455   0.876   0.240  0.00  0.00    +0.000 A 
ATOM     26  C   UNL     1      10.460  -0.023   0.605  0.00  0.00    +0.000 A 
ATOM     27  C   UNL     1      10.344  -1.367   0.259  0.00  0.00    +0.000 A 
ATOM     28  C   UNL     1       9.236  -1.807  -0.458  0.00  0.00    +0.000 A 
ATOM     29  F   UNL     1       9.148  -3.109  -0.766  0.00  0.00    +0.000 F 
ATOM     30  C   UNL     1       8.224  -0.918  -0.833  0.00  0.00    +0.000 A 
ATOM     31 CL   UNL     1       6.857  -1.525  -1.702  0.00  0.00    +0.000 Cl
ENDBRANCH   3  24
BRANCH  10  32
ATOM     32  C   UNL     1       2.215   6.419  -1.379  0.00  0.00    +0.000 A 
ATOM     33  C   UNL     1       0.898   6.804  -1.593  0.00  0.00    +0.000 A 
ATOM     34  C   UNL     1       0.229   7.603  -0.662  0.00  0.00    +0.000 A 
ATOM     35  C   UNL     1       0.853   8.099   0.500  0.00  0.00    +0.000 A 
ATOM     36  C   UNL     1       2.187   7.696   0.727  0.00  0.00    +0.000 A 
ATOM     37  C   UNL     1       3.047   8.180   1.866  0.00  0.00    +0.000 C 
ATOM     38  C   UNL     1       2.837   6.852  -0.206  0.00  0.00    +0.000 A 
BRANCH  35  39
ATOM     39  N   UNL     1       0.210   9.034   1.304  0.00  0.00    +0.000 N 
ATOM     40  C   UNL     1      -0.863   9.867   0.726  0.00  0.00    +0.000 C 
ATOM     41  C   UNL     1      -0.960  11.193   1.512  0.00  0.00    +0.000 C 
ATOM     42  N   UNL     1      -1.174  10.983   2.963  0.00  0.00    +0.000 N 
ATOM     43  C   UNL     1      -1.197  12.263   3.663  0.00  0.00    +0.000 C 
ATOM     44  C   UNL     1      -0.102  10.101   3.490  0.00  0.00    +0.000 C 
ATOM     45  C   UNL     1      -0.039   8.746   2.730  0.00  0.00    +0.000 C 
ATOM     46  H   UNL     1      -2.076  10.532   3.117  0.00  0.00    +0.000 HD
ENDBRANCH  35  39
ENDBRANCH  10  32
TORSDOF 5
