MODEL 1
REMARK VINA RESULT:    -8.083      0.000      0.000
REMARK INTER + INTRA:         -15.510
REMARK INTER:                 -13.282
REMARK INTRA:                  -2.228
REMARK UNBOUND:                -2.228
REMARK  Name = 
REMARK  17 active torsions:
REMARK  status: ('A' for Active; 'I' for Inactive)
REMARK    1  A    between atoms: C_1  and  C_2
REMARK    2  A    between atoms: C_2  and  C_3
REMARK    3  A    between atoms: C_4  and  C_5
REMARK    4  A    between atoms: N_7  and  C_8
REMARK    5  A    between atoms: C_10  and  N_11
REMARK    6  A    between atoms: C_15  and  C_16
REMARK    7  A    between atoms: C_18  and  C_19
REMARK    8  A    between atoms: N_21  and  C_22
REMARK    9  A    between atoms: C_30  and  O_31
REMARK   10  A    between atoms: O_31  and  C_32
REMARK   11  A    between atoms: C_34  and  N_35
REMARK   12  A    between atoms: N_35  and  C_36
REMARK   13  A    between atoms: N_35  and  C_37
REMARK   14  A    between atoms: C_37  and  C_38
REMARK   15  A    between atoms: C_38  and  N_39
REMARK   16  A    between atoms: N_39  and  C_40
REMARK   17  A    between atoms: N_39  and  C_41
REMARK                            x       y       z     vdW  Elec       q    Type
REMARK                         _______ _______ _______ _____ _____    ______ ____
ROOT
ATOM      1  C   UNL     1      25.273   6.932  48.556  0.00  0.00    +0.000 A 
ATOM      2  C   UNL     1      25.563   5.716  49.198  0.00  0.00    +0.000 A 
ATOM      3  C   UNL     1      26.824   5.106  49.127  0.00  0.00    +0.000 A 
ATOM      4  C   UNL     1      27.790   5.737  48.335  0.00  0.00    +0.000 A 
ATOM      5  C   UNL     1      27.501   6.955  47.694  0.00  0.00    +0.000 A 
ATOM      6  C   UNL     1      26.252   7.613  47.784  0.00  0.00    +0.000 A 
ENDROOT
BRANCH   3   7
ATOM      7  N   UNL     1      27.131   3.952  49.884  0.00  0.00    +0.000 N 
ATOM      8  C   UNL     1      26.208   3.114  50.505  0.00  0.00    +0.000 A 
ATOM      9  N   UNL     1      25.029   2.868  49.920  0.00  0.00    +0.000 NA
ATOM     10  C   UNL     1      24.085   2.232  50.643  0.00  0.00    +0.000 A 
ATOM     11  C   UNL     1      24.276   1.792  51.929  0.00  0.00    +0.000 A 
ATOM     12  C   UNL     1      25.556   1.944  52.388  0.00  0.00    +0.000 A 
ATOM     13  N   UNL     1      26.517   2.623  51.702  0.00  0.00    +0.000 NA
ATOM     14  H   UNL     1      28.084   3.720  49.980  0.00  0.00    +0.000 HD
BRANCH  12  15
ATOM     15  C   UNL     1      26.112   1.182  53.516  0.00  0.00    +0.000 A 
ATOM     16  C   UNL     1      26.957   1.838  54.396  0.00  0.00    +0.000 A 
ATOM     17  N   UNL     1      28.157   1.169  54.324  0.00  0.00    +0.000 N 
ATOM     18  C   UNL     1      29.431   1.816  54.543  0.00  0.00    +0.000 C 
ATOM     19  C   UNL     1      27.986  -0.068  53.736  0.00  0.00    +0.000 A 
ATOM     20  C   UNL     1      28.909  -1.073  53.406  0.00  0.00    +0.000 A 
ATOM     21  C   UNL     1      28.432  -2.220  52.764  0.00  0.00    +0.000 A 
ATOM     22  C   UNL     1      27.080  -2.367  52.471  0.00  0.00    +0.000 A 
ATOM     23  C   UNL     1      26.180  -1.329  52.738  0.00  0.00    +0.000 A 
ATOM     24  C   UNL     1      26.640  -0.150  53.364  0.00  0.00    +0.000 A 
ENDBRANCH  12  15
BRANCH  11  25
ATOM     25  C   UNL     1      23.193   1.300  52.700  0.00  0.00    +0.000 C 
ATOM     26  N   UNL     1      22.250   0.957  53.287  0.00  0.00    +0.000 NA
ENDBRANCH  11  25
ENDBRANCH   3   7
BRANCH   1  29
ATOM     27  C   UNL     1      22.830   7.520  48.379  0.00  0.00    +0.000 C 
ATOM     28  O   UNL     1      21.944   8.185  48.908  0.00  0.00    +0.000 OA
ATOM     29  N   UNL     1      24.067   7.533  48.945  0.00  0.00    +0.000 N 
ATOM     30  H   UNL     1      24.126   8.055  49.777  0.00  0.00    +0.000 HD
BRANCH  27  32
ATOM     31  C   UNL     1      22.288   5.481  46.972  0.00  0.00    +0.000 C 
ATOM     32  C   UNL     1      22.615   6.778  47.118  0.00  0.00    +0.000 C 
BRANCH  31  34
ATOM     33  C   UNL     1      22.275   2.868  47.460  0.00  0.00    +0.000 C 
ATOM     34  C   UNL     1      22.122   4.312  47.914  0.00  0.00    +0.000 C 
ENDBRANCH  31  34
ENDBRANCH  27  32
ENDBRANCH   1  29
BRANCH   4  35
ATOM     35  O   UNL     1      29.095   5.309  48.273  0.00  0.00    +0.000 OA
ATOM     36  C   UNL     1      30.054   6.349  48.466  0.00  0.00    +0.000 C 
ENDBRANCH   4  35
BRANCH   6  37
ATOM     37  N   UNL     1      26.037   8.828  47.125  0.00  0.00    +0.000 N 
ATOM     38  C   UNL     1      26.406  10.123  47.697  0.00  0.00    +0.000 C 
BRANCH  37  39
ATOM     39  C   UNL     1      25.753   8.884  45.668  0.00  0.00    +0.000 C 
BRANCH  39  40
ATOM     40  C   UNL     1      24.382   9.532  45.368  0.00  0.00    +0.000 C 
BRANCH  40  41
ATOM     41  N   UNL     1      23.634   9.081  44.180  0.00  0.00    +0.000 N 
ATOM     42  C   UNL     1      23.961   7.724  43.759  0.00  0.00    +0.000 C 
ATOM     43  C   UNL     1      22.192   9.264  44.299  0.00  0.00    +0.000 C 
ATOM     44  H   UNL     1      23.954   9.702  43.438  0.00  0.00    +0.000 HD
ENDBRANCH  40  41
ENDBRANCH  39  40
ENDBRANCH  37  39
ENDBRANCH   6  37
TORSDOF 11
ENDMDL
MODEL 2
REMARK VINA RESULT:    -7.708      2.696     10.085
REMARK INTER + INTRA:         -14.894
REMARK INTER:                 -14.005
REMARK INTRA:                  -0.888
REMARK UNBOUND:                -2.228
REMARK  Name = 
REMARK  17 active torsions:
REMARK  status: ('A' for Active; 'I' for Inactive)
REMARK    1  A    between atoms: C_1  and  C_2
REMARK    2  A    between atoms: C_2  and  C_3
REMARK    3  A    between atoms: C_4  and  C_5
REMARK    4  A    between atoms: N_7  and  C_8
REMARK    5  A    between atoms: C_10  and  N_11
REMARK    6  A    between atoms: C_15  and  C_16
REMARK    7  A    between atoms: C_18  and  C_19
REMARK    8  A    between atoms: N_21  and  C_22
REMARK    9  A    between atoms: C_30  and  O_31
REMARK   10  A    between atoms: O_31  and  C_32
REMARK   11  A    between atoms: C_34  and  N_35
REMARK   12  A    between atoms: N_35  and  C_36
REMARK   13  A    between atoms: N_35  and  C_37
REMARK   14  A    between atoms: C_37  and  C_38
REMARK   15  A    between atoms: C_38  and  N_39
REMARK   16  A    between atoms: N_39  and  C_40
REMARK   17  A    between atoms: N_39  and  C_41
REMARK                            x       y       z     vdW  Elec       q    Type
REMARK                         _______ _______ _______ _____ _____    ______ ____
ROOT
ATOM      1  C   UNL     1      23.756   1.669  51.947  0.00  0.00    +0.000 A 
ATOM      2  C   UNL     1      24.001   2.546  50.877  0.00  0.00    +0.000 A 
ATOM      3  C   UNL     1      23.148   2.642  49.768  0.00  0.00    +0.000 A 
ATOM      4  C   UNL     1      22.047   1.778  49.738  0.00  0.00    +0.000 A 
ATOM      5  C   UNL     1      21.800   0.902  50.809  0.00  0.00    +0.000 A 
ATOM      6  C   UNL     1      22.621   0.815  51.959  0.00  0.00    +0.000 A 
ENDROOT
BRANCH   3   7
ATOM      7  N   UNL     1      23.343   3.620  48.766  0.00  0.00    +0.000 N 
ATOM      8  C   UNL     1      24.237   4.688  48.831  0.00  0.00    +0.000 A 
ATOM      9  N   UNL     1      25.423   4.531  49.431  0.00  0.00    +0.000 NA
ATOM     10  C   UNL     1      26.166   5.633  49.663  0.00  0.00    +0.000 A 
ATOM     11  C   UNL     1      25.790   6.899  49.289  0.00  0.00    +0.000 A 
ATOM     12  C   UNL     1      24.642   6.945  48.544  0.00  0.00    +0.000 A 
ATOM     13  N   UNL     1      23.847   5.859  48.334  0.00  0.00    +0.000 NA
ATOM     14  H   UNL     1      22.800   3.540  47.949  0.00  0.00    +0.000 HD
BRANCH  12  15
ATOM     15  C   UNL     1      24.279   8.075  47.677  0.00  0.00    +0.000 A 
ATOM     16  C   UNL     1      22.941   8.263  47.372  0.00  0.00    +0.000 A 
ATOM     17  N   UNL     1      22.856   8.155  46.003  0.00  0.00    +0.000 N 
ATOM     18  C   UNL     1      21.675   7.666  45.326  0.00  0.00    +0.000 C 
ATOM     19  C   UNL     1      24.105   8.278  45.430  0.00  0.00    +0.000 A 
ATOM     20  C   UNL     1      24.523   8.189  44.093  0.00  0.00    +0.000 A 
ATOM     21  C   UNL     1      25.889   8.317  43.821  0.00  0.00    +0.000 A 
ATOM     22  C   UNL     1      26.806   8.538  44.844  0.00  0.00    +0.000 A 
ATOM     23  C   UNL     1      26.387   8.552  46.179  0.00  0.00    +0.000 A 
ATOM     24  C   UNL     1      25.017   8.401  46.483  0.00  0.00    +0.000 A 
ENDBRANCH  12  15
BRANCH  11  25
ATOM     25  C   UNL     1      26.518   8.034  49.723  0.00  0.00    +0.000 C 
ATOM     26  N   UNL     1      27.153   8.911  50.146  0.00  0.00    +0.000 NA
ENDBRANCH  11  25
ENDBRANCH   3   7
BRANCH   1  29
ATOM     27  C   UNL     1      25.760   1.392  53.448  0.00  0.00    +0.000 C 
ATOM     28  O   UNL     1      26.214   1.715  54.542  0.00  0.00    +0.000 OA
ATOM     29  N   UNL     1      24.547   1.888  53.084  0.00  0.00    +0.000 N 
ATOM     30  H   UNL     1      24.155   2.515  53.734  0.00  0.00    +0.000 HD
BRANCH  27  32
ATOM     31  C   UNL     1      27.662  -0.123  52.729  0.00  0.00    +0.000 C 
ATOM     32  C   UNL     1      26.448   0.430  52.559  0.00  0.00    +0.000 C 
BRANCH  31  34
ATOM     33  C   UNL     1      29.986  -0.877  53.777  0.00  0.00    +0.000 C 
ATOM     34  C   UNL     1      28.783   0.053  53.727  0.00  0.00    +0.000 C 
ENDBRANCH  31  34
ENDBRANCH  27  32
ENDBRANCH   1  29
BRANCH   4  35
ATOM     35  O   UNL     1      21.073   1.850  48.770  0.00  0.00    +0.000 OA
ATOM     36  C   UNL     1      19.859   2.453  49.217  0.00  0.00    +0.000 C 
ENDBRANCH   4  35
BRANCH   6  37
ATOM     37  N   UNL     1      22.309  -0.076  52.991  0.00  0.00    +0.000 N 
ATOM     38  C   UNL     1      23.257  -1.065  53.505  0.00  0.00    +0.000 C 
BRANCH  37  39
ATOM     39  C   UNL     1      21.138   0.139  53.879  0.00  0.00    +0.000 C 
BRANCH  39  40
ATOM     40  C   UNL     1      20.216  -1.102  53.934  0.00  0.00    +0.000 C 
BRANCH  40  41
ATOM     41  N   UNL     1      18.803  -0.948  53.540  0.00  0.00    +0.000 N 
ATOM     42  C   UNL     1      18.619  -0.277  52.259  0.00  0.00    +0.000 C 
ATOM     43  C   UNL     1      18.046  -2.192  53.599  0.00  0.00    +0.000 C 
ATOM     44  H   UNL     1      18.417  -0.328  54.252  0.00  0.00    +0.000 HD
ENDBRANCH  40  41
ENDBRANCH  39  40
ENDBRANCH  37  39
ENDBRANCH   6  37
TORSDOF 11
ENDMDL
MODEL 3
REMARK VINA RESULT:    -7.610      5.640     10.235
REMARK INTER + INTRA:         -14.732
REMARK INTER:                 -12.665
REMARK INTRA:                  -2.067
REMARK UNBOUND:                -2.228
REMARK  Name = 
REMARK  17 active torsions:
REMARK  status: ('A' for Active; 'I' for Inactive)
REMARK    1  A    between atoms: C_1  and  C_2
REMARK    2  A    between atoms: C_2  and  C_3
REMARK    3  A    between atoms: C_4  and  C_5
REMARK    4  A    between atoms: N_7  and  C_8
REMARK    5  A    between atoms: C_10  and  N_11
REMARK    6  A    between atoms: C_15  and  C_16
REMARK    7  A    between atoms: C_18  and  C_19
REMARK    8  A    between atoms: N_21  and  C_22
REMARK    9  A    between atoms: C_30  and  O_31
REMARK   10  A    between atoms: O_31  and  C_32
REMARK   11  A    between atoms: C_34  and  N_35
REMARK   12  A    between atoms: N_35  and  C_36
REMARK   13  A    between atoms: N_35  and  C_37
REMARK   14  A    between atoms: C_37  and  C_38
REMARK   15  A    between atoms: C_38  and  N_39
REMARK   16  A    between atoms: N_39  and  C_40
REMARK   17  A    between atoms: N_39  and  C_41
REMARK                            x       y       z     vdW  Elec       q    Type
REMARK                         _______ _______ _______ _____ _____    ______ ____
ROOT
ATOM      1  C   UNL     1      23.019   3.174  52.326  0.00  0.00    +0.000 A 
ATOM      2  C   UNL     1      21.616   3.083  52.310  0.00  0.00    +0.000 A 
ATOM      3  C   UNL     1      20.936   1.873  52.514  0.00  0.00    +0.000 A 
ATOM      4  C   UNL     1      21.719   0.727  52.687  0.00  0.00    +0.000 A 
ATOM      5  C   UNL     1      23.121   0.818  52.705  0.00  0.00    +0.000 A 
ATOM      6  C   UNL     1      23.832   2.031  52.544  0.00  0.00    +0.000 A 
ENDROOT
BRANCH   3   7
ATOM      7  N   UNL     1      19.527   1.827  52.622  0.00  0.00    +0.000 N 
ATOM      8  C   UNL     1      18.632   1.676  51.565  0.00  0.00    +0.000 A 
ATOM      9  N   UNL     1      18.949   0.891  50.528  0.00  0.00    +0.000 NA
ATOM     10  C   UNL     1      18.160   0.939  49.434  0.00  0.00    +0.000 A 
ATOM     11  C   UNL     1      17.034   1.717  49.339  0.00  0.00    +0.000 A 
ATOM     12  C   UNL     1      16.700   2.362  50.500  0.00  0.00    +0.000 A 
ATOM     13  N   UNL     1      17.499   2.372  51.602  0.00  0.00    +0.000 NA
ATOM     14  H   UNL     1      19.144   1.907  53.526  0.00  0.00    +0.000 HD
BRANCH  12  15
ATOM     15  C   UNL     1      15.353   2.879  50.785  0.00  0.00    +0.000 A 
ATOM     16  C   UNL     1      15.243   4.072  51.480  0.00  0.00    +0.000 A 
ATOM     17  N   UNL     1      14.556   3.766  52.632  0.00  0.00    +0.000 N 
ATOM     18  C   UNL     1      14.749   4.479  53.875  0.00  0.00    +0.000 C 
ATOM     19  C   UNL     1      13.925   2.545  52.508  0.00  0.00    +0.000 A 
ATOM     20  C   UNL     1      13.159   1.801  53.420  0.00  0.00    +0.000 A 
ATOM     21  C   UNL     1      12.679   0.553  53.010  0.00  0.00    +0.000 A 
ATOM     22  C   UNL     1      12.943   0.066  51.734  0.00  0.00    +0.000 A 
ATOM     23  C   UNL     1      13.767   0.783  50.860  0.00  0.00    +0.000 A 
ATOM     24  C   UNL     1      14.285   2.035  51.257  0.00  0.00    +0.000 A 
ENDBRANCH  12  15
BRANCH  11  25
ATOM     25  C   UNL     1      16.353   1.868  48.105  0.00  0.00    +0.000 C 
ATOM     26  N   UNL     1      15.864   2.050  47.066  0.00  0.00    +0.000 NA
ENDBRANCH  11  25
ENDBRANCH   3   7
BRANCH   1  29
ATOM     27  C   UNL     1      23.935   5.326  51.391  0.00  0.00    +0.000 C 
ATOM     28  O   UNL     1      24.392   6.418  51.718  0.00  0.00    +0.000 OA
ATOM     29  N   UNL     1      23.525   4.481  52.374  0.00  0.00    +0.000 N 
ATOM     30  H   UNL     1      23.594   4.854  53.283  0.00  0.00    +0.000 HD
BRANCH  27  32
ATOM     31  C   UNL     1      24.870   4.958  49.062  0.00  0.00    +0.000 C 
ATOM     32  C   UNL     1      23.892   4.878  49.982  0.00  0.00    +0.000 C 
BRANCH  31  34
ATOM     33  C   UNL     1      27.495   4.759  48.693  0.00  0.00    +0.000 C 
ATOM     34  C   UNL     1      26.251   5.569  49.027  0.00  0.00    +0.000 C 
ENDBRANCH  31  34
ENDBRANCH  27  32
ENDBRANCH   1  29
BRANCH   4  35
ATOM     35  O   UNL     1      21.182  -0.497  53.011  0.00  0.00    +0.000 OA
ATOM     36  C   UNL     1      21.606  -0.996  54.279  0.00  0.00    +0.000 C 
ENDBRANCH   4  35
BRANCH   6  37
ATOM     37  N   UNL     1      25.230   2.048  52.581  0.00  0.00    +0.000 N 
ATOM     38  C   UNL     1      26.057   2.329  51.406  0.00  0.00    +0.000 C 
BRANCH  37  39
ATOM     39  C   UNL     1      25.975   2.134  53.863  0.00  0.00    +0.000 C 
BRANCH  39  40
ATOM     40  C   UNL     1      27.392   1.523  53.754  0.00  0.00    +0.000 C 
BRANCH  40  41
ATOM     41  N   UNL     1      27.591   0.126  54.181  0.00  0.00    +0.000 N 
ATOM     42  C   UNL     1      27.192  -0.858  53.182  0.00  0.00    +0.000 C 
ATOM     43  C   UNL     1      28.935  -0.141  54.679  0.00  0.00    +0.000 C 
ATOM     44  H   UNL     1      26.953   0.018  54.969  0.00  0.00    +0.000 HD
ENDBRANCH  40  41
ENDBRANCH  39  40
ENDBRANCH  37  39
ENDBRANCH   6  37
TORSDOF 11
ENDMDL
MODEL 4
REMARK VINA RESULT:    -7.571      5.639     10.328
REMARK INTER + INTRA:         -14.668
REMARK INTER:                 -12.441
REMARK INTRA:                  -2.226
REMARK UNBOUND:                -2.228
REMARK  Name = 
REMARK  17 active torsions:
REMARK  status: ('A' for Active; 'I' for Inactive)
REMARK    1  A    between atoms: C_1  and  C_2
REMARK    2  A    between atoms: C_2  and  C_3
REMARK    3  A    between atoms: C_4  and  C_5
REMARK    4  A    between atoms: N_7  and  C_8
REMARK    5  A    between atoms: C_10  and  N_11
REMARK    6  A    between atoms: C_15  and  C_16
REMARK    7  A    between atoms: C_18  and  C_19
REMARK    8  A    between atoms: N_21  and  C_22
REMARK    9  A    between atoms: C_30  and  O_31
REMARK   10  A    between atoms: O_31  and  C_32
REMARK   11  A    between atoms: C_34  and  N_35
REMARK   12  A    between atoms: N_35  and  C_36
REMARK   13  A    between atoms: N_35  and  C_37
REMARK   14  A    between atoms: C_37  and  C_38
REMARK   15  A    between atoms: C_38  and  N_39
REMARK   16  A    between atoms: N_39  and  C_40
REMARK   17  A    between atoms: N_39  and  C_41
REMARK                            x       y       z     vdW  Elec       q    Type
REMARK                         _______ _______ _______ _____ _____    ______ ____
ROOT
ATOM      1  C   UNL     1      23.923   2.154  50.816  0.00  0.00    +0.000 A 
ATOM      2  C   UNL     1      22.682   2.044  50.164  0.00  0.00    +0.000 A 
ATOM      3  C   UNL     1      21.670   1.182  50.609  0.00  0.00    +0.000 A 
ATOM      4  C   UNL     1      21.961   0.381  51.718  0.00  0.00    +0.000 A 
ATOM      5  C   UNL     1      23.200   0.492  52.371  0.00  0.00    +0.000 A 
ATOM      6  C   UNL     1      24.224   1.383  51.969  0.00  0.00    +0.000 A 
ENDROOT
BRANCH   3   7
ATOM      7  N   UNL     1      20.386   1.181  50.016  0.00  0.00    +0.000 N 
ATOM      8  C   UNL     1      19.299   1.954  50.421  0.00  0.00    +0.000 A 
ATOM      9  N   UNL     1      19.496   3.198  50.874  0.00  0.00    +0.000 NA
ATOM     10  C   UNL     1      18.456   3.832  51.454  0.00  0.00    +0.000 A 
ATOM     11  C   UNL     1      17.202   3.288  51.573  0.00  0.00    +0.000 A 
ATOM     12  C   UNL     1      17.052   2.082  50.944  0.00  0.00    +0.000 A 
ATOM     13  N   UNL     1      18.092   1.397  50.393  0.00  0.00    +0.000 NA
ATOM     14  H   UNL     1      20.248   0.581  49.247  0.00  0.00    +0.000 HD
BRANCH  12  15
ATOM     15  C   UNL     1      15.750   1.523  50.554  0.00  0.00    +0.000 A 
ATOM     16  C   UNL     1      15.093   2.085  49.472  0.00  0.00    +0.000 A 
ATOM     17  N   UNL     1      13.900   2.558  49.969  0.00  0.00    +0.000 N 
ATOM     18  C   UNL     1      13.218   3.706  49.413  0.00  0.00    +0.000 C 
ATOM     19  C   UNL     1      13.633   1.996  51.200  0.00  0.00    +0.000 A 
ATOM     20  C   UNL     1      12.578   2.202  52.103  0.00  0.00    +0.000 A 
ATOM     21  C   UNL     1      12.604   1.504  53.315  0.00  0.00    +0.000 A 
ATOM     22  C   UNL     1      13.638   0.623  53.613  0.00  0.00    +0.000 A 
ATOM     23  C   UNL     1      14.720   0.480  52.737  0.00  0.00    +0.000 A 
ATOM     24  C   UNL     1      14.731   1.191  51.518  0.00  0.00    +0.000 A 
ENDBRANCH  12  15
BRANCH  11  25
ATOM     25  C   UNL     1      16.203   3.922  52.354  0.00  0.00    +0.000 C 
ATOM     26  N   UNL     1      15.426   4.406  53.071  0.00  0.00    +0.000 NA
ENDBRANCH  11  25
ENDBRANCH   3   7
BRANCH   1  29
ATOM     27  C   UNL     1      24.722   4.544  50.803  0.00  0.00    +0.000 C 
ATOM     28  O   UNL     1      25.492   5.314  50.237  0.00  0.00    +0.000 OA
ATOM     29  N   UNL     1      24.710   3.242  50.409  0.00  0.00    +0.000 N 
ATOM     30  H   UNL     1      25.372   3.023  49.715  0.00  0.00    +0.000 HD
BRANCH  27  32
ATOM     31  C   UNL     1      22.559   5.568  51.644  0.00  0.00    +0.000 C 
ATOM     32  C   UNL     1      23.763   5.000  51.834  0.00  0.00    +0.000 C 
BRANCH  31  34
ATOM     33  C   UNL     1      21.142   7.419  50.367  0.00  0.00    +0.000 C 
ATOM     34  C   UNL     1      21.783   6.042  50.437  0.00  0.00    +0.000 C 
ENDBRANCH  31  34
ENDBRANCH  27  32
ENDBRANCH   1  29
BRANCH   4  35
ATOM     35  O   UNL     1      21.020  -0.419  52.324  0.00  0.00    +0.000 OA
ATOM     36  C   UNL     1      20.473   0.138  53.519  0.00  0.00    +0.000 C 
ENDBRANCH   4  35
BRANCH   6  37
ATOM     37  N   UNL     1      25.431   1.446  52.673  0.00  0.00    +0.000 N 
ATOM     38  C   UNL     1      25.591   2.196  53.919  0.00  0.00    +0.000 C 
BRANCH  37  39
ATOM     39  C   UNL     1      26.534   0.485  52.414  0.00  0.00    +0.000 C 
BRANCH  39  40
ATOM     40  C   UNL     1      26.646  -0.584  53.527  0.00  0.00    +0.000 C 
BRANCH  40  41
ATOM     41  N   UNL     1      27.972  -0.856  54.110  0.00  0.00    +0.000 N 
ATOM     42  C   UNL     1      28.874  -1.569  53.214  0.00  0.00    +0.000 C 
ATOM     43  C   UNL     1      28.612   0.327  54.673  0.00  0.00    +0.000 C 
ATOM     44  H   UNL     1      27.774  -1.487  54.886  0.00  0.00    +0.000 HD
ENDBRANCH  40  41
ENDBRANCH  39  40
ENDBRANCH  37  39
ENDBRANCH   6  37
TORSDOF 11
ENDMDL
MODEL 5
REMARK VINA RESULT:    -7.552      5.962     10.798
REMARK INTER + INTRA:         -14.637
REMARK INTER:                 -12.896
REMARK INTRA:                  -1.741
REMARK UNBOUND:                -2.228
REMARK  Name = 
REMARK  17 active torsions:
REMARK  status: ('A' for Active; 'I' for Inactive)
REMARK    1  A    between atoms: C_1  and  C_2
REMARK    2  A    between atoms: C_2  and  C_3
REMARK    3  A    between atoms: C_4  and  C_5
REMARK    4  A    between atoms: N_7  and  C_8
REMARK    5  A    between atoms: C_10  and  N_11
REMARK    6  A    between atoms: C_15  and  C_16
REMARK    7  A    between atoms: C_18  and  C_19
REMARK    8  A    between atoms: N_21  and  C_22
REMARK    9  A    between atoms: C_30  and  O_31
REMARK   10  A    between atoms: O_31  and  C_32
REMARK   11  A    between atoms: C_34  and  N_35
REMARK   12  A    between atoms: N_35  and  C_36
REMARK   13  A    between atoms: N_35  and  C_37
REMARK   14  A    between atoms: C_37  and  C_38
REMARK   15  A    between atoms: C_38  and  N_39
REMARK   16  A    between atoms: N_39  and  C_40
REMARK   17  A    between atoms: N_39  and  C_41
REMARK                            x       y       z     vdW  Elec       q    Type
REMARK                         _______ _______ _______ _____ _____    ______ ____
ROOT
ATOM      1  C   UNL     1      22.705   1.846  52.436  0.00  0.00    +0.000 A 
ATOM      2  C   UNL     1      21.383   1.374  52.503  0.00  0.00    +0.000 A 
ATOM      3  C   UNL     1      21.058   0.108  53.011  0.00  0.00    +0.000 A 
ATOM      4  C   UNL     1      22.123  -0.707  53.411  0.00  0.00    +0.000 A 
ATOM      5  C   UNL     1      23.445  -0.234  53.346  0.00  0.00    +0.000 A 
ATOM      6  C   UNL     1      23.797   1.054  52.878  0.00  0.00    +0.000 A 
ENDROOT
BRANCH   3   7
ATOM      7  N   UNL     1      19.715  -0.296  53.189  0.00  0.00    +0.000 N 
ATOM      8  C   UNL     1      18.666  -0.054  52.304  0.00  0.00    +0.000 A 
ATOM      9  N   UNL     1      18.887  -0.076  50.984  0.00  0.00    +0.000 NA
ATOM     10  C   UNL     1      17.908   0.371  50.171  0.00  0.00    +0.000 A 
ATOM     11  C   UNL     1      16.687   0.813  50.618  0.00  0.00    +0.000 A 
ATOM     12  C   UNL     1      16.492   0.651  51.963  0.00  0.00    +0.000 A 
ATOM     13  N   UNL     1      17.476   0.249  52.814  0.00  0.00    +0.000 NA
ATOM     14  H   UNL     1      19.502  -0.794  54.012  0.00  0.00    +0.000 HD
BRANCH  12  15
ATOM     15  C   UNL     1      15.166   0.629  52.596  0.00  0.00    +0.000 A 
ATOM     16  C   UNL     1      14.322  -0.432  52.312  0.00  0.00    +0.000 A 
ATOM     17  N   UNL     1      13.209   0.126  51.728  0.00  0.00    +0.000 N 
ATOM     18  C   UNL     1      12.404  -0.569  50.749  0.00  0.00    +0.000 C 
ATOM     19  C   UNL     1      13.164   1.483  51.973  0.00  0.00    +0.000 A 
ATOM     20  C   UNL     1      12.262   2.472  51.550  0.00  0.00    +0.000 A 
ATOM     21  C   UNL     1      12.509   3.794  51.932  0.00  0.00    +0.000 A 
ATOM     22  C   UNL     1      13.609   4.120  52.718  0.00  0.00    +0.000 A 
ATOM     23  C   UNL     1      14.541   3.138  53.073  0.00  0.00    +0.000 A 
ATOM     24  C   UNL     1      14.329   1.799  52.680  0.00  0.00    +0.000 A 
ENDBRANCH  12  15
BRANCH  11  25
ATOM     25  C   UNL     1      15.772   1.442  49.737  0.00  0.00    +0.000 C 
ATOM     26  N   UNL     1      15.094   1.973  48.956  0.00  0.00    +0.000 NA
ENDBRANCH  11  25
ENDBRANCH   3   7
BRANCH   1  29
ATOM     27  C   UNL     1      23.273   3.875  51.054  0.00  0.00    +0.000 C 
ATOM     28  O   UNL     1      23.327   5.101  51.094  0.00  0.00    +0.000 OA
ATOM     29  N   UNL     1      22.829   3.215  52.158  0.00  0.00    +0.000 N 
ATOM     30  H   UNL     1      22.543   3.804  52.893  0.00  0.00    +0.000 HD
BRANCH  27  32
ATOM     31  C   UNL     1      25.003   2.978  49.432  0.00  0.00    +0.000 C 
ATOM     32  C   UNL     1      23.742   3.101  49.885  0.00  0.00    +0.000 C 
BRANCH  31  34
ATOM     33  C   UNL     1      26.980   4.697  48.981  0.00  0.00    +0.000 C 
ATOM     34  C   UNL     1      26.333   3.592  49.803  0.00  0.00    +0.000 C 
ENDBRANCH  31  34
ENDBRANCH  27  32
ENDBRANCH   1  29
BRANCH   4  35
ATOM     35  O   UNL     1      21.938  -1.920  54.033  0.00  0.00    +0.000 OA
ATOM     36  C   UNL     1      22.494  -1.986  55.346  0.00  0.00    +0.000 C 
ENDBRANCH   4  35
BRANCH   6  37
ATOM     37  N   UNL     1      25.135   1.460  52.848  0.00  0.00    +0.000 N 
ATOM     38  C   UNL     1      25.664   2.527  53.698  0.00  0.00    +0.000 C 
BRANCH  37  39
ATOM     39  C   UNL     1      26.190   0.621  52.224  0.00  0.00    +0.000 C 
BRANCH  39  40
ATOM     40  C   UNL     1      27.312   0.260  53.226  0.00  0.00    +0.000 C 
BRANCH  40  41
ATOM     41  N   UNL     1      27.661  -1.160  53.410  0.00  0.00    +0.000 N 
ATOM     42  C   UNL     1      26.948  -2.063  52.514  0.00  0.00    +0.000 C 
ATOM     43  C   UNL     1      29.097  -1.413  53.382  0.00  0.00    +0.000 C 
ATOM     44  H   UNL     1      27.339  -1.371  54.354  0.00  0.00    +0.000 HD
ENDBRANCH  40  41
ENDBRANCH  39  40
ENDBRANCH  37  39
ENDBRANCH   6  37
TORSDOF 11
ENDMDL
MODEL 6
REMARK VINA RESULT:    -7.448      5.138      9.893
REMARK INTER + INTRA:         -14.466
REMARK INTER:                 -12.150
REMARK INTRA:                  -2.316
REMARK UNBOUND:                -2.228
REMARK  Name = 
REMARK  17 active torsions:
REMARK  status: ('A' for Active; 'I' for Inactive)
REMARK    1  A    between atoms: C_1  and  C_2
REMARK    2  A    between atoms: C_2  and  C_3
REMARK    3  A    between atoms: C_4  and  C_5
REMARK    4  A    between atoms: N_7  and  C_8
REMARK    5  A    between atoms: C_10  and  N_11
REMARK    6  A    between atoms: C_15  and  C_16
REMARK    7  A    between atoms: C_18  and  C_19
REMARK    8  A    between atoms: N_21  and  C_22
REMARK    9  A    between atoms: C_30  and  O_31
REMARK   10  A    between atoms: O_31  and  C_32
REMARK   11  A    between atoms: C_34  and  N_35
REMARK   12  A    between atoms: N_35  and  C_36
REMARK   13  A    between atoms: N_35  and  C_37
REMARK   14  A    between atoms: C_37  and  C_38
REMARK   15  A    between atoms: C_38  and  N_39
REMARK   16  A    between atoms: N_39  and  C_40
REMARK   17  A    between atoms: N_39  and  C_41
REMARK                            x       y       z     vdW  Elec       q    Type
REMARK                         _______ _______ _______ _____ _____    ______ ____
ROOT
ATOM      1  C   UNL     1      23.979   1.933  50.917  0.00  0.00    +0.000 A 
ATOM      2  C   UNL     1      22.704   1.703  50.373  0.00  0.00    +0.000 A 
ATOM      3  C   UNL     1      21.768   0.850  50.976  0.00  0.00    +0.000 A 
ATOM      4  C   UNL     1      22.175   0.182  52.136  0.00  0.00    +0.000 A 
ATOM      5  C   UNL     1      23.449   0.414  52.682  0.00  0.00    +0.000 A 
ATOM      6  C   UNL     1      24.397   1.301  52.118  0.00  0.00    +0.000 A 
ENDROOT
BRANCH   3   7
ATOM      7  N   UNL     1      20.448   0.733  50.483  0.00  0.00    +0.000 N 
ATOM      8  C   UNL     1      19.390   1.593  50.769  0.00  0.00    +0.000 A 
ATOM      9  N   UNL     1      19.616   2.905  50.911  0.00  0.00    +0.000 NA
ATOM     10  C   UNL     1      18.616   3.670  51.395  0.00  0.00    +0.000 A 
ATOM     11  C   UNL     1      17.372   3.186  51.716  0.00  0.00    +0.000 A 
ATOM     12  C   UNL     1      17.182   1.870  51.390  0.00  0.00    +0.000 A 
ATOM     13  N   UNL     1      18.184   1.062  50.946  0.00  0.00    +0.000 NA
ATOM     14  H   UNL     1      20.260  -0.026  49.882  0.00  0.00    +0.000 HD
BRANCH  12  15
ATOM     15  C   UNL     1      15.857   1.257  51.223  0.00  0.00    +0.000 A 
ATOM     16  C   UNL     1      15.406   0.394  52.208  0.00  0.00    +0.000 A 
ATOM     17  N   UNL     1      15.219  -0.817  51.582  0.00  0.00    +0.000 N 
ATOM     18  C   UNL     1      15.371  -2.084  52.262  0.00  0.00    +0.000 C 
ATOM     19  C   UNL     1      15.176  -0.651  50.213  0.00  0.00    +0.000 A 
ATOM     20  C   UNL     1      15.056  -1.583  49.170  0.00  0.00    +0.000 A 
ATOM     21  C   UNL     1      15.087  -1.107  47.856  0.00  0.00    +0.000 A 
ATOM     22  C   UNL     1      15.224   0.251  47.588  0.00  0.00    +0.000 A 
ATOM     23  C   UNL     1      15.417   1.162  48.632  0.00  0.00    +0.000 A 
ATOM     24  C   UNL     1      15.413   0.705  49.968  0.00  0.00    +0.000 A 
ENDBRANCH  12  15
BRANCH  11  25
ATOM     25  C   UNL     1      16.426   3.997  52.393  0.00  0.00    +0.000 C 
ATOM     26  N   UNL     1      15.583   4.615  52.900  0.00  0.00    +0.000 NA
ENDBRANCH  11  25
ENDBRANCH   3   7
BRANCH   1  29
ATOM     27  C   UNL     1      24.662   4.339  50.611  0.00  0.00    +0.000 C 
ATOM     28  O   UNL     1      25.350   5.079  49.913  0.00  0.00    +0.000 OA
ATOM     29  N   UNL     1      24.680   3.005  50.346  0.00  0.00    +0.000 N 
ATOM     30  H   UNL     1      25.297   2.745  49.624  0.00  0.00    +0.000 HD
BRANCH  27  32
ATOM     31  C   UNL     1      22.643   5.581  51.512  0.00  0.00    +0.000 C 
ATOM     32  C   UNL     1      23.766   4.857  51.668  0.00  0.00    +0.000 C 
BRANCH  31  34
ATOM     33  C   UNL     1      21.518   5.411  49.110  0.00  0.00    +0.000 C 
ATOM     34  C   UNL     1      21.936   6.211  50.334  0.00  0.00    +0.000 C 
ENDBRANCH  31  34
ENDBRANCH  27  32
ENDBRANCH   1  29
BRANCH   4  35
ATOM     35  O   UNL     1      21.319  -0.589  52.888  0.00  0.00    +0.000 OA
ATOM     36  C   UNL     1      21.744  -0.774  54.238  0.00  0.00    +0.000 C 
ENDBRANCH   4  35
BRANCH   6  37
ATOM     37  N   UNL     1      25.644   1.488  52.720  0.00  0.00    +0.000 N 
ATOM     38  C   UNL     1      25.836   2.295  53.926  0.00  0.00    +0.000 C 
BRANCH  37  39
ATOM     39  C   UNL     1      26.801   0.611  52.405  0.00  0.00    +0.000 C 
BRANCH  39  40
ATOM     40  C   UNL     1      26.842  -0.644  53.308  0.00  0.00    +0.000 C 
BRANCH  40  41
ATOM     41  N   UNL     1      28.066  -0.913  54.085  0.00  0.00    +0.000 N 
ATOM     42  C   UNL     1      29.070  -1.679  53.356  0.00  0.00    +0.000 C 
ATOM     43  C   UNL     1      28.646   0.283  54.685  0.00  0.00    +0.000 C 
ATOM     44  H   UNL     1      27.745  -1.506  54.850  0.00  0.00    +0.000 HD
ENDBRANCH  40  41
ENDBRANCH  39  40
ENDBRANCH  37  39
ENDBRANCH   6  37
TORSDOF 11
ENDMDL
MODEL 7
REMARK VINA RESULT:    -7.368      7.118     12.315
REMARK INTER + INTRA:         -14.334
REMARK INTER:                 -12.461
REMARK INTRA:                  -1.874
REMARK UNBOUND:                -2.228
REMARK  Name = 
REMARK  17 active torsions:
REMARK  status: ('A' for Active; 'I' for Inactive)
REMARK    1  A    between atoms: C_1  and  C_2
REMARK    2  A    between atoms: C_2  and  C_3
REMARK    3  A    between atoms: C_4  and  C_5
REMARK    4  A    between atoms: N_7  and  C_8
REMARK    5  A    between atoms: C_10  and  N_11
REMARK    6  A    between atoms: C_15  and  C_16
REMARK    7  A    between atoms: C_18  and  C_19
REMARK    8  A    between atoms: N_21  and  C_22
REMARK    9  A    between atoms: C_30  and  O_31
REMARK   10  A    between atoms: O_31  and  C_32
REMARK   11  A    between atoms: C_34  and  N_35
REMARK   12  A    between atoms: N_35  and  C_36
REMARK   13  A    between atoms: N_35  and  C_37
REMARK   14  A    between atoms: C_37  and  C_38
REMARK   15  A    between atoms: C_38  and  N_39
REMARK   16  A    between atoms: N_39  and  C_40
REMARK   17  A    between atoms: N_39  and  C_41
REMARK                            x       y       z     vdW  Elec       q    Type
REMARK                         _______ _______ _______ _____ _____    ______ ____
ROOT
ATOM      1  C   UNL     1      20.583   2.403  52.172  0.00  0.00    +0.000 A 
ATOM      2  C   UNL     1      19.490   2.949  51.476  0.00  0.00    +0.000 A 
ATOM      3  C   UNL     1      18.309   2.231  51.242  0.00  0.00    +0.000 A 
ATOM      4  C   UNL     1      18.273   0.906  51.689  0.00  0.00    +0.000 A 
ATOM      5  C   UNL     1      19.364   0.360  52.387  0.00  0.00    +0.000 A 
ATOM      6  C   UNL     1      20.551   1.076  52.674  0.00  0.00    +0.000 A 
ENDROOT
BRANCH   3   7
ATOM      7  N   UNL     1      17.176   2.841  50.654  0.00  0.00    +0.000 N 
ATOM      8  C   UNL     1      16.093   3.384  51.342  0.00  0.00    +0.000 A 
ATOM      9  N   UNL     1      16.289   4.013  52.507  0.00  0.00    +0.000 NA
ATOM     10  C   UNL     1      15.204   4.334  53.242  0.00  0.00    +0.000 A 
ATOM     11  C   UNL     1      13.914   4.083  52.848  0.00  0.00    +0.000 A 
ATOM     12  C   UNL     1      13.803   3.583  51.579  0.00  0.00    +0.000 A 
ATOM     13  N   UNL     1      14.877   3.206  50.832  0.00  0.00    +0.000 NA
ATOM     14  H   UNL     1      17.152   2.886  49.670  0.00  0.00    +0.000 HD
BRANCH  12  15
ATOM     15  C   UNL     1      12.568   3.646  50.784  0.00  0.00    +0.000 A 
ATOM     16  C   UNL     1      12.341   2.652  49.846  0.00  0.00    +0.000 A 
ATOM     17  N   UNL     1      12.267   3.298  48.634  0.00  0.00    +0.000 N 
ATOM     18  C   UNL     1      12.662   2.678  47.389  0.00  0.00    +0.000 C 
ATOM     19  C   UNL     1      12.068   4.651  48.819  0.00  0.00    +0.000 A 
ATOM     20  C   UNL     1      11.979   5.708  47.900  0.00  0.00    +0.000 A 
ATOM     21  C   UNL     1      11.815   7.003  48.401  0.00  0.00    +0.000 A 
ATOM     22  C   UNL     1      11.732   7.237  49.770  0.00  0.00    +0.000 A 
ATOM     23  C   UNL     1      11.895   6.186  50.679  0.00  0.00    +0.000 A 
ATOM     24  C   UNL     1      12.086   4.871  50.200  0.00  0.00    +0.000 A 
ENDBRANCH  12  15
BRANCH  11  25
ATOM     25  C   UNL     1      12.829   4.272  53.740  0.00  0.00    +0.000 C 
ATOM     26  N   UNL     1      11.956   4.339  54.506  0.00  0.00    +0.000 NA
ENDBRANCH  11  25
ENDBRANCH   3   7
BRANCH   1  29
ATOM     27  C   UNL     1      22.691   3.759  51.919  0.00  0.00    +0.000 C 
ATOM     28  O   UNL     1      23.418   4.555  52.507  0.00  0.00    +0.000 OA
ATOM     29  N   UNL     1      21.565   3.330  52.550  0.00  0.00    +0.000 N 
ATOM     30  H   UNL     1      21.410   3.746  53.429  0.00  0.00    +0.000 HD
BRANCH  27  32
ATOM     31  C   UNL     1      24.260   3.108  50.036  0.00  0.00    +0.000 C 
ATOM     32  C   UNL     1      23.040   3.199  50.595  0.00  0.00    +0.000 C 
BRANCH  31  34
ATOM     33  C   UNL     1      26.736   3.825  49.385  0.00  0.00    +0.000 C 
ATOM     34  C   UNL     1      25.644   3.580  50.416  0.00  0.00    +0.000 C 
ENDBRANCH  31  34
ENDBRANCH  27  32
ENDBRANCH   1  29
BRANCH   4  35
ATOM     35  O   UNL     1      17.138   0.131  51.627  0.00  0.00    +0.000 OA
ATOM     36  C   UNL     1      17.016  -0.800  52.702  0.00  0.00    +0.000 C 
ENDBRANCH   4  35
BRANCH   6  37
ATOM     37  N   UNL     1      21.595   0.470  53.381  0.00  0.00    +0.000 N 
ATOM     38  C   UNL     1      21.407  -0.191  54.673  0.00  0.00    +0.000 C 
BRANCH  37  39
ATOM     39  C   UNL     1      22.887   0.136  52.727  0.00  0.00    +0.000 C 
BRANCH  39  40
ATOM     40  C   UNL     1      23.849  -0.602  53.687  0.00  0.00    +0.000 C 
BRANCH  40  41
ATOM     41  N   UNL     1      25.246  -0.137  53.780  0.00  0.00    +0.000 N 
ATOM     42  C   UNL     1      26.200  -1.000  53.093  0.00  0.00    +0.000 C 
ATOM     43  C   UNL     1      25.419   1.257  53.391  0.00  0.00    +0.000 C 
ATOM     44  H   UNL     1      25.460  -0.200  54.775  0.00  0.00    +0.000 HD
ENDBRANCH  40  41
ENDBRANCH  39  40
ENDBRANCH  37  39
ENDBRANCH   6  37
TORSDOF 11
ENDMDL
MODEL 8
REMARK VINA RESULT:    -7.350      5.080     10.313
REMARK INTER + INTRA:         -14.305
REMARK INTER:                 -12.464
REMARK INTRA:                  -1.842
REMARK UNBOUND:                -2.228
REMARK  Name = 
REMARK  17 active torsions:
REMARK  status: ('A' for Active; 'I' for Inactive)
REMARK    1  A    between atoms: C_1  and  C_2
REMARK    2  A    between atoms: C_2  and  C_3
REMARK    3  A    between atoms: C_4  and  C_5
REMARK    4  A    between atoms: N_7  and  C_8
REMARK    5  A    between atoms: C_10  and  N_11
REMARK    6  A    between atoms: C_15  and  C_16
REMARK    7  A    between atoms: C_18  and  C_19
REMARK    8  A    between atoms: N_21  and  C_22
REMARK    9  A    between atoms: C_30  and  O_31
REMARK   10  A    between atoms: O_31  and  C_32
REMARK   11  A    between atoms: C_34  and  N_35
REMARK   12  A    between atoms: N_35  and  C_36
REMARK   13  A    between atoms: N_35  and  C_37
REMARK   14  A    between atoms: C_37  and  C_38
REMARK   15  A    between atoms: C_38  and  N_39
REMARK   16  A    between atoms: N_39  and  C_40
REMARK   17  A    between atoms: N_39  and  C_41
REMARK                            x       y       z     vdW  Elec       q    Type
REMARK                         _______ _______ _______ _____ _____    ______ ____
ROOT
ATOM      1  C   UNL     1      23.537   1.450  51.509  0.00  0.00    +0.000 A 
ATOM      2  C   UNL     1      22.209   1.431  51.050  0.00  0.00    +0.000 A 
ATOM      3  C   UNL     1      21.218   0.632  51.638  0.00  0.00    +0.000 A 
ATOM      4  C   UNL     1      21.617  -0.203  52.687  0.00  0.00    +0.000 A 
ATOM      5  C   UNL     1      22.945  -0.183  53.148  0.00  0.00    +0.000 A 
ATOM      6  C   UNL     1      23.954   0.644  52.601  0.00  0.00    +0.000 A 
ENDROOT
BRANCH   3   7
ATOM      7  N   UNL     1      19.863   0.724  51.245  0.00  0.00    +0.000 N 
ATOM      8  C   UNL     1      19.351   1.584  50.275  0.00  0.00    +0.000 A 
ATOM      9  N   UNL     1      20.073   1.864  49.183  0.00  0.00    +0.000 NA
ATOM     10  C   UNL     1      19.643   2.857  48.378  0.00  0.00    +0.000 A 
ATOM     11  C   UNL     1      18.491   3.572  48.597  0.00  0.00    +0.000 A 
ATOM     12  C   UNL     1      17.738   3.113  49.644  0.00  0.00    +0.000 A 
ATOM     13  N   UNL     1      18.168   2.146  50.501  0.00  0.00    +0.000 NA
ATOM     14  H   UNL     1      19.224   0.126  51.697  0.00  0.00    +0.000 HD
BRANCH  12  15
ATOM     15  C   UNL     1      16.307   3.404  49.805  0.00  0.00    +0.000 A 
ATOM     16  C   UNL     1      15.929   4.314  50.778  0.00  0.00    +0.000 A 
ATOM     17  N   UNL     1      15.119   3.615  51.644  0.00  0.00    +0.000 N 
ATOM     18  C   UNL     1      15.019   3.930  53.052  0.00  0.00    +0.000 C 
ATOM     19  C   UNL     1      14.687   2.442  51.060  0.00  0.00    +0.000 A 
ATOM     20  C   UNL     1      13.898   1.394  51.560  0.00  0.00    +0.000 A 
ATOM     21  C   UNL     1      13.661   0.295  50.729  0.00  0.00    +0.000 A 
ATOM     22  C   UNL     1      14.183   0.244  49.441  0.00  0.00    +0.000 A 
ATOM     23  C   UNL     1      15.029   1.260  48.979  0.00  0.00    +0.000 A 
ATOM     24  C   UNL     1      15.303   2.370  49.806  0.00  0.00    +0.000 A 
ENDBRANCH  12  15
BRANCH  11  25
ATOM     25  C   UNL     1      18.189   4.722  47.826  0.00  0.00    +0.000 C 
ATOM     26  N   UNL     1      17.887   5.610  47.139  0.00  0.00    +0.000 NA
ENDBRANCH  11  25
ENDBRANCH   3   7
BRANCH   1  29
ATOM     27  C   UNL     1      24.433   3.799  51.345  0.00  0.00    +0.000 C 
ATOM     28  O   UNL     1      25.176   4.518  50.682  0.00  0.00    +0.000 OA
ATOM     29  N   UNL     1      24.326   2.489  50.994  0.00  0.00    +0.000 N 
ATOM     30  H   UNL     1      24.906   2.222  50.245  0.00  0.00    +0.000 HD
BRANCH  27  32
ATOM     31  C   UNL     1      22.322   4.734  52.394  0.00  0.00    +0.000 C 
ATOM     32  C   UNL     1      23.602   4.326  52.450  0.00  0.00    +0.000 C 
BRANCH  31  34
ATOM     33  C   UNL     1      21.639   5.650  49.994  0.00  0.00    +0.000 C 
ATOM     34  C   UNL     1      21.310   4.920  51.287  0.00  0.00    +0.000 C 
ENDBRANCH  31  34
ENDBRANCH  27  32
ENDBRANCH   1  29
BRANCH   4  35
ATOM     35  O   UNL     1      20.726  -0.948  53.424  0.00  0.00    +0.000 OA
ATOM     36  C   UNL     1      21.316  -1.616  54.539  0.00  0.00    +0.000 C 
ENDBRANCH   4  35
BRANCH   6  37
ATOM     37  N   UNL     1      25.254   0.617  53.116  0.00  0.00    +0.000 N 
ATOM     38  C   UNL     1      25.807   1.687  53.948  0.00  0.00    +0.000 C 
BRANCH  37  39
ATOM     39  C   UNL     1      26.048  -0.638  53.161  0.00  0.00    +0.000 C 
BRANCH  39  40
ATOM     40  C   UNL     1      27.557  -0.380  52.938  0.00  0.00    +0.000 C 
BRANCH  40  41
ATOM     41  N   UNL     1      28.504  -0.786  53.993  0.00  0.00    +0.000 N 
ATOM     42  C   UNL     1      29.621  -1.585  53.504  0.00  0.00    +0.000 C 
ATOM     43  C   UNL     1      28.968   0.326  54.814  0.00  0.00    +0.000 C 
ATOM     44  H   UNL     1      27.952  -1.395  54.597  0.00  0.00    +0.000 HD
ENDBRANCH  40  41
ENDBRANCH  39  40
ENDBRANCH  37  39
ENDBRANCH   6  37
TORSDOF 11
ENDMDL
MODEL 9
REMARK VINA RESULT:    -7.304      4.899      8.946
REMARK INTER + INTRA:         -14.230
REMARK INTER:                 -12.410
REMARK INTRA:                  -1.820
REMARK UNBOUND:                -2.228
REMARK  Name = 
REMARK  17 active torsions:
REMARK  status: ('A' for Active; 'I' for Inactive)
REMARK    1  A    between atoms: C_1  and  C_2
REMARK    2  A    between atoms: C_2  and  C_3
REMARK    3  A    between atoms: C_4  and  C_5
REMARK    4  A    between atoms: N_7  and  C_8
REMARK    5  A    between atoms: C_10  and  N_11
REMARK    6  A    between atoms: C_15  and  C_16
REMARK    7  A    between atoms: C_18  and  C_19
REMARK    8  A    between atoms: N_21  and  C_22
REMARK    9  A    between atoms: C_30  and  O_31
REMARK   10  A    between atoms: O_31  and  C_32
REMARK   11  A    between atoms: C_34  and  N_35
REMARK   12  A    between atoms: N_35  and  C_36
REMARK   13  A    between atoms: N_35  and  C_37
REMARK   14  A    between atoms: C_37  and  C_38
REMARK   15  A    between atoms: C_38  and  N_39
REMARK   16  A    between atoms: N_39  and  C_40
REMARK   17  A    between atoms: N_39  and  C_41
REMARK                            x       y       z     vdW  Elec       q    Type
REMARK                         _______ _______ _______ _____ _____    ______ ____
ROOT
ATOM      1  C   UNL     1      23.696   3.989  51.433  0.00  0.00    +0.000 A 
ATOM      2  C   UNL     1      22.316   3.926  51.692  0.00  0.00    +0.000 A 
ATOM      3  C   UNL     1      21.353   3.982  50.674  0.00  0.00    +0.000 A 
ATOM      4  C   UNL     1      21.821   4.158  49.368  0.00  0.00    +0.000 A 
ATOM      5  C   UNL     1      23.200   4.218  49.107  0.00  0.00    +0.000 A 
ATOM      6  C   UNL     1      24.195   4.122  50.110  0.00  0.00    +0.000 A 
ENDROOT
BRANCH   3   7
ATOM      7  N   UNL     1      19.978   3.788  50.945  0.00  0.00    +0.000 N 
ATOM      8  C   UNL     1      19.418   2.673  51.564  0.00  0.00    +0.000 A 
ATOM      9  N   UNL     1      20.079   2.053  52.549  0.00  0.00    +0.000 NA
ATOM     10  C   UNL     1      19.610   0.861  52.974  0.00  0.00    +0.000 A 
ATOM     11  C   UNL     1      18.475   0.268  52.479  0.00  0.00    +0.000 A 
ATOM     12  C   UNL     1      17.779   1.044  51.592  0.00  0.00    +0.000 A 
ATOM     13  N   UNL     1      18.251   2.227  51.109  0.00  0.00    +0.000 NA
ATOM     14  H   UNL     1      19.362   4.507  50.672  0.00  0.00    +0.000 HD
BRANCH  12  15
ATOM     15  C   UNL     1      16.360   0.838  51.270  0.00  0.00    +0.000 A 
ATOM     16  C   UNL     1      16.035   0.369  50.008  0.00  0.00    +0.000 A 
ATOM     17  N   UNL     1      15.251   1.346  49.441  0.00  0.00    +0.000 N 
ATOM     18  C   UNL     1      15.212   1.593  48.016  0.00  0.00    +0.000 C 
ATOM     19  C   UNL     1      14.777   2.208  50.409  0.00  0.00    +0.000 A 
ATOM     20  C   UNL     1      13.993   3.368  50.312  0.00  0.00    +0.000 A 
ATOM     21  C   UNL     1      13.706   4.067  51.489  0.00  0.00    +0.000 A 
ATOM     22  C   UNL     1      14.175   3.622  52.720  0.00  0.00    +0.000 A 
ATOM     23  C   UNL     1      15.016   2.506  52.796  0.00  0.00    +0.000 A 
ATOM     24  C   UNL     1      15.341   1.795  51.620  0.00  0.00    +0.000 A 
ENDBRANCH  12  15
BRANCH  11  25
ATOM     25  C   UNL     1      18.136  -1.063  52.829  0.00  0.00    +0.000 C 
ATOM     26  N   UNL     1      17.884  -2.134  53.205  0.00  0.00    +0.000 NA
ENDBRANCH  11  25
ENDBRANCH   3   7
BRANCH   1  29
ATOM     27  C   UNL     1      24.926   2.447  53.000  0.00  0.00    +0.000 C 
ATOM     28  O   UNL     1      25.615   2.433  54.016  0.00  0.00    +0.000 OA
ATOM     29  N   UNL     1      24.517   3.652  52.518  0.00  0.00    +0.000 N 
ATOM     30  H   UNL     1      24.860   4.426  53.021  0.00  0.00    +0.000 HD
BRANCH  27  32
ATOM     31  C   UNL     1      23.562   0.320  52.786  0.00  0.00    +0.000 C 
ATOM     32  C   UNL     1      24.469   1.206  52.337  0.00  0.00    +0.000 C 
BRANCH  31  34
ATOM     33  C   UNL     1      22.516  -1.205  54.695  0.00  0.00    +0.000 C 
ATOM     34  C   UNL     1      22.777   0.155  54.067  0.00  0.00    +0.000 C 
ENDBRANCH  31  34
ENDBRANCH  27  32
ENDBRANCH   1  29
BRANCH   4  35
ATOM     35  O   UNL     1      20.993   4.112  48.270  0.00  0.00    +0.000 OA
ATOM     36  C   UNL     1      21.010   2.859  47.586  0.00  0.00    +0.000 C 
ENDBRANCH   4  35
BRANCH   6  37
ATOM     37  N   UNL     1      25.551   4.183  49.776  0.00  0.00    +0.000 N 
ATOM     38  C   UNL     1      26.411   3.001  49.707  0.00  0.00    +0.000 C 
BRANCH  37  39
ATOM     39  C   UNL     1      26.141   5.382  49.127  0.00  0.00    +0.000 C 
BRANCH  39  40
ATOM     40  C   UNL     1      27.573   5.116  48.607  0.00  0.00    +0.000 C 
BRANCH  40  41
ATOM     41  N   UNL     1      28.609   6.139  48.842  0.00  0.00    +0.000 N 
ATOM     42  C   UNL     1      29.877   5.854  48.182  0.00  0.00    +0.000 C 
ATOM     43  C   UNL     1      28.158   7.496  48.558  0.00  0.00    +0.000 C 
ATOM     44  H   UNL     1      28.783   6.085  49.845  0.00  0.00    +0.000 HD
ENDBRANCH  40  41
ENDBRANCH  39  40
ENDBRANCH  37  39
ENDBRANCH   6  37
TORSDOF 11
ENDMDL
