MODEL 1
REMARK VINA RESULT:    -8.235      0.000      0.000
REMARK INTER + INTRA:         -12.331
REMARK INTER:                 -11.124
REMARK INTRA:                  -1.207
REMARK UNBOUND:                -1.207
REMARK  Name = 
REMARK  10 active torsions:
REMARK  status: ('A' for Active; 'I' for Inactive)
REMARK    1  A    between atoms: C_1  and  O_2
REMARK    2  A    between atoms: O_2  and  C_3
REMARK    3  A    between atoms: C_9  and  C_10
REMARK    4  A    between atoms: C_11  and  C_12
REMARK    5  A    between atoms: C_12  and  C_13
REMARK    6  A    between atoms: C_12  and  C_14
REMARK    7  A    between atoms: C_12  and  C_15
REMARK    8  A    between atoms: C_15  and  C_16
REMARK    9  A    between atoms: C_24  and  O_25
REMARK   10  A    between atoms: O_25  and  C_26
REMARK                            x       y       z     vdW  Elec       q    Type
REMARK                         _______ _______ _______ _____ _____    ______ ____
ROOT
ATOM      1  C   UNL     1      25.904  -0.277  53.353  0.00  0.00    +0.000 A 
ATOM      2  C   UNL     1      24.575  -0.698  53.524  0.00  0.00    +0.000 A 
ATOM      3  C   UNL     1      23.491   0.114  53.200  0.00  0.00    +0.000 A 
ATOM      4  N   UNL     1      22.239  -0.303  53.432  0.00  0.00    +0.000 NA
ATOM      5  C   UNL     1      21.238   0.544  53.122  0.00  0.00    +0.000 A 
ATOM      6  N   UNL     1      21.369   1.760  52.594  0.00  0.00    +0.000 NA
ATOM      7  C   UNL     1      22.637   2.149  52.369  0.00  0.00    +0.000 A 
ATOM      8  C   UNL     1      23.759   1.372  52.655  0.00  0.00    +0.000 A 
ATOM      9  C   UNL     1      25.093   1.781  52.422  0.00  0.00    +0.000 A 
ATOM     10  C   UNL     1      26.165   0.971  52.777  0.00  0.00    +0.000 A 
ENDROOT
BRANCH   1  12
ATOM     11  C   UNL     1      27.292  -2.102  52.772  0.00  0.00    +0.000 C 
ATOM     12  O   UNL     1      26.854  -1.180  53.768  0.00  0.00    +0.000 OA
ENDBRANCH   1  12
BRANCH   7  13
ATOM     13  C   UNL     1      22.766   3.477  51.837  0.00  0.00    +0.000 C 
ATOM     14  C   UNL     1      22.925   4.546  51.316  0.00  0.00    +0.000 C 
BRANCH  14  15
ATOM     15  C   UNL     1      23.150   5.859  50.658  0.00  0.00    +0.000 C 
ATOM     16  C   UNL     1      21.810   6.625  50.609  0.00  0.00    +0.000 C 
ATOM     17  C   UNL     1      24.144   6.677  51.495  0.00  0.00    +0.000 C 
BRANCH  15  18
ATOM     18  C   UNL     1      23.638   5.681  49.192  0.00  0.00    +0.000 C 
BRANCH  18  19
ATOM     19  C   UNL     1      25.123   5.482  48.991  0.00  0.00    +0.000 A 
ATOM     20  C   UNL     1      25.730   4.265  49.334  0.00  0.00    +0.000 A 
ATOM     21  C   UNL     1      27.100   4.079  49.143  0.00  0.00    +0.000 A 
ATOM     22  C   UNL     1      27.875   5.105  48.606  0.00  0.00    +0.000 A 
ATOM     23  C   UNL     1      27.283   6.317  48.263  0.00  0.00    +0.000 A 
ATOM     24  C   UNL     1      25.913   6.506  48.453  0.00  0.00    +0.000 A 
ENDBRANCH  18  19
ENDBRANCH  15  18
ENDBRANCH  14  15
ENDBRANCH   7  13
BRANCH  10  25
ATOM     25  O   UNL     1      27.454   1.321  52.484  0.00  0.00    +0.000 OA
ATOM     26  C   UNL     1      28.143   2.059  53.485  0.00  0.00    +0.000 C 
ENDBRANCH  10  25
TORSDOF 6
ENDMDL
MODEL 2
REMARK VINA RESULT:    -8.042      3.477      5.898
REMARK INTER + INTRA:         -12.069
REMARK INTER:                 -11.074
REMARK INTRA:                  -0.996
REMARK UNBOUND:                -1.207
REMARK  Name = 
REMARK  10 active torsions:
REMARK  status: ('A' for Active; 'I' for Inactive)
REMARK    1  A    between atoms: C_1  and  O_2
REMARK    2  A    between atoms: O_2  and  C_3
REMARK    3  A    between atoms: C_9  and  C_10
REMARK    4  A    between atoms: C_11  and  C_12
REMARK    5  A    between atoms: C_12  and  C_13
REMARK    6  A    between atoms: C_12  and  C_14
REMARK    7  A    between atoms: C_12  and  C_15
REMARK    8  A    between atoms: C_15  and  C_16
REMARK    9  A    between atoms: C_24  and  O_25
REMARK   10  A    between atoms: O_25  and  C_26
REMARK                            x       y       z     vdW  Elec       q    Type
REMARK                         _______ _______ _______ _____ _____    ______ ____
ROOT
ATOM      1  C   UNL     1      18.729  -1.104  53.105  0.00  0.00    +0.000 A 
ATOM      2  C   UNL     1      19.609  -1.627  54.067  0.00  0.00    +0.000 A 
ATOM      3  C   UNL     1      20.948  -1.247  54.134  0.00  0.00    +0.000 A 
ATOM      4  N   UNL     1      21.767  -1.813  55.030  0.00  0.00    +0.000 NA
ATOM      5  C   UNL     1      23.057  -1.420  55.020  0.00  0.00    +0.000 A 
ATOM      6  N   UNL     1      23.600  -0.512  54.210  0.00  0.00    +0.000 NA
ATOM      7  C   UNL     1      22.750   0.039  53.325  0.00  0.00    +0.000 A 
ATOM      8  C   UNL     1      21.399  -0.286  53.225  0.00  0.00    +0.000 A 
ATOM      9  C   UNL     1      20.505   0.290  52.292  0.00  0.00    +0.000 A 
ATOM     10  C   UNL     1      19.179  -0.119  52.220  0.00  0.00    +0.000 A 
ENDROOT
BRANCH   1  12
ATOM     11  C   UNL     1      17.370  -2.998  53.507  0.00  0.00    +0.000 C 
ATOM     12  O   UNL     1      17.456  -1.621  53.146  0.00  0.00    +0.000 OA
ENDBRANCH   1  12
BRANCH   7  13
ATOM     13  C   UNL     1      23.356   0.987  52.431  0.00  0.00    +0.000 C 
ATOM     14  C   UNL     1      23.933   1.794  51.756  0.00  0.00    +0.000 C 
BRANCH  14  15
ATOM     15  C   UNL     1      24.658   2.807  50.947  0.00  0.00    +0.000 C 
ATOM     16  C   UNL     1      24.011   2.878  49.547  0.00  0.00    +0.000 C 
ATOM     17  C   UNL     1      24.515   4.181  51.616  0.00  0.00    +0.000 C 
BRANCH  15  18
ATOM     18  C   UNL     1      26.149   2.413  50.749  0.00  0.00    +0.000 C 
BRANCH  18  19
ATOM     19  C   UNL     1      26.772   1.553  51.827  0.00  0.00    +0.000 A 
ATOM     20  C   UNL     1      27.418   2.144  52.922  0.00  0.00    +0.000 A 
ATOM     21  C   UNL     1      27.989   1.350  53.919  0.00  0.00    +0.000 A 
ATOM     22  C   UNL     1      27.917  -0.038  53.831  0.00  0.00    +0.000 A 
ATOM     23  C   UNL     1      27.279  -0.635  52.747  0.00  0.00    +0.000 A 
ATOM     24  C   UNL     1      26.708   0.156  51.749  0.00  0.00    +0.000 A 
ENDBRANCH  18  19
ENDBRANCH  15  18
ENDBRANCH  14  15
ENDBRANCH   7  13
BRANCH  10  25
ATOM     25  O   UNL     1      18.289   0.487  51.377  0.00  0.00    +0.000 OA
ATOM     26  C   UNL     1      18.281   1.909  51.395  0.00  0.00    +0.000 C 
ENDBRANCH  10  25
TORSDOF 6
ENDMDL
MODEL 3
REMARK VINA RESULT:    -7.904      2.722      6.185
REMARK INTER + INTRA:         -11.883
REMARK INTER:                 -11.129
REMARK INTRA:                  -0.753
REMARK UNBOUND:                -1.207
REMARK  Name = 
REMARK  10 active torsions:
REMARK  status: ('A' for Active; 'I' for Inactive)
REMARK    1  A    between atoms: C_1  and  O_2
REMARK    2  A    between atoms: O_2  and  C_3
REMARK    3  A    between atoms: C_9  and  C_10
REMARK    4  A    between atoms: C_11  and  C_12
REMARK    5  A    between atoms: C_12  and  C_13
REMARK    6  A    between atoms: C_12  and  C_14
REMARK    7  A    between atoms: C_12  and  C_15
REMARK    8  A    between atoms: C_15  and  C_16
REMARK    9  A    between atoms: C_24  and  O_25
REMARK   10  A    between atoms: O_25  and  C_26
REMARK                            x       y       z     vdW  Elec       q    Type
REMARK                         _______ _______ _______ _____ _____    ______ ____
ROOT
ATOM      1  C   UNL     1      26.567   0.163  53.474  0.00  0.00    +0.000 A 
ATOM      2  C   UNL     1      27.186   1.163  52.707  0.00  0.00    +0.000 A 
ATOM      3  C   UNL     1      26.470   1.981  51.835  0.00  0.00    +0.000 A 
ATOM      4  N   UNL     1      27.107   2.885  51.079  0.00  0.00    +0.000 NA
ATOM      5  C   UNL     1      26.357   3.623  50.237  0.00  0.00    +0.000 A 
ATOM      6  N   UNL     1      25.035   3.551  50.088  0.00  0.00    +0.000 NA
ATOM      7  C   UNL     1      24.425   2.636  50.864  0.00  0.00    +0.000 A 
ATOM      8  C   UNL     1      25.086   1.805  51.766  0.00  0.00    +0.000 A 
ATOM      9  C   UNL     1      24.446   0.841  52.579  0.00  0.00    +0.000 A 
ATOM     10  C   UNL     1      25.178   0.013  53.423  0.00  0.00    +0.000 A 
ENDROOT
BRANCH   1  12
ATOM     11  C   UNL     1      28.626   0.073  54.636  0.00  0.00    +0.000 C 
ATOM     12  O   UNL     1      27.424  -0.588  54.244  0.00  0.00    +0.000 OA
ENDBRANCH   1  12
BRANCH   7  13
ATOM     13  C   UNL     1      23.005   2.541  50.664  0.00  0.00    +0.000 C 
ATOM     14  C   UNL     1      21.809   2.517  50.580  0.00  0.00    +0.000 C 
BRANCH  14  15
ATOM     15  C   UNL     1      20.325   2.491  50.509  0.00  0.00    +0.000 C 
ATOM     16  C   UNL     1      19.756   2.876  51.892  0.00  0.00    +0.000 C 
ATOM     17  C   UNL     1      19.852   3.532  49.485  0.00  0.00    +0.000 C 
BRANCH  15  18
ATOM     18  C   UNL     1      19.799   1.067  50.171  0.00  0.00    +0.000 C 
BRANCH  18  19
ATOM     19  C   UNL     1      19.231   0.263  51.319  0.00  0.00    +0.000 A 
ATOM     20  C   UNL     1      17.882  -0.118  51.321  0.00  0.00    +0.000 A 
ATOM     21  C   UNL     1      17.359  -0.865  52.378  0.00  0.00    +0.000 A 
ATOM     22  C   UNL     1      18.179  -1.239  53.440  0.00  0.00    +0.000 A 
ATOM     23  C   UNL     1      19.520  -0.866  53.449  0.00  0.00    +0.000 A 
ATOM     24  C   UNL     1      20.046  -0.119  52.394  0.00  0.00    +0.000 A 
ENDBRANCH  18  19
ENDBRANCH  15  18
ENDBRANCH  14  15
ENDBRANCH   7  13
BRANCH  10  25
ATOM     25  O   UNL     1      24.563  -0.866  54.271  0.00  0.00    +0.000 OA
ATOM     26  C   UNL     1      23.141  -0.857  54.257  0.00  0.00    +0.000 C 
ENDBRANCH  10  25
TORSDOF 6
ENDMDL
MODEL 4
REMARK VINA RESULT:    -7.608      2.661      4.414
REMARK INTER + INTRA:         -11.483
REMARK INTER:                  -9.719
REMARK INTRA:                  -1.764
REMARK UNBOUND:                -1.207
REMARK  Name = 
REMARK  10 active torsions:
REMARK  status: ('A' for Active; 'I' for Inactive)
REMARK    1  A    between atoms: C_1  and  O_2
REMARK    2  A    between atoms: O_2  and  C_3
REMARK    3  A    between atoms: C_9  and  C_10
REMARK    4  A    between atoms: C_11  and  C_12
REMARK    5  A    between atoms: C_12  and  C_13
REMARK    6  A    between atoms: C_12  and  C_14
REMARK    7  A    between atoms: C_12  and  C_15
REMARK    8  A    between atoms: C_15  and  C_16
REMARK    9  A    between atoms: C_24  and  O_25
REMARK   10  A    between atoms: O_25  and  C_26
REMARK                            x       y       z     vdW  Elec       q    Type
REMARK                         _______ _______ _______ _____ _____    ______ ____
ROOT
ATOM      1  C   UNL     1      23.169  -0.522  53.146  0.00  0.00    +0.000 A 
ATOM      2  C   UNL     1      24.529  -0.504  53.494  0.00  0.00    +0.000 A 
ATOM      3  C   UNL     1      25.403   0.475  53.027  0.00  0.00    +0.000 A 
ATOM      4  N   UNL     1      26.705   0.424  53.337  0.00  0.00    +0.000 NA
ATOM      5  C   UNL     1      27.499   1.387  52.829  0.00  0.00    +0.000 A 
ATOM      6  N   UNL     1      27.114   2.398  52.051  0.00  0.00    +0.000 NA
ATOM      7  C   UNL     1      25.800   2.424  51.762  0.00  0.00    +0.000 A 
ATOM      8  C   UNL     1      24.877   1.484  52.215  0.00  0.00    +0.000 A 
ATOM      9  C   UNL     1      23.497   1.508  51.908  0.00  0.00    +0.000 A 
ATOM     10  C   UNL     1      22.643   0.508  52.359  0.00  0.00    +0.000 A 
ENDROOT
BRANCH   1  12
ATOM     11  C   UNL     1      22.113  -1.484  55.032  0.00  0.00    +0.000 C 
ATOM     12  O   UNL     1      22.457  -1.584  53.651  0.00  0.00    +0.000 OA
ENDBRANCH   1  12
BRANCH   7  13
ATOM     13  C   UNL     1      25.406   3.497  50.891  0.00  0.00    +0.000 C 
ATOM     14  C   UNL     1      25.152   4.446  50.202  0.00  0.00    +0.000 C 
BRANCH  14  15
ATOM     15  C   UNL     1      24.850   5.641  49.372  0.00  0.00    +0.000 C 
ATOM     16  C   UNL     1      24.317   6.760  50.292  0.00  0.00    +0.000 C 
ATOM     17  C   UNL     1      26.145   6.133  48.712  0.00  0.00    +0.000 C 
BRANCH  15  18
ATOM     18  C   UNL     1      23.745   5.336  48.322  0.00  0.00    +0.000 C 
BRANCH  18  19
ATOM     19  C   UNL     1      22.809   4.190  48.634  0.00  0.00    +0.000 A 
ATOM     20  C   UNL     1      21.748   4.363  49.533  0.00  0.00    +0.000 A 
ATOM     21  C   UNL     1      20.881   3.306  49.817  0.00  0.00    +0.000 A 
ATOM     22  C   UNL     1      21.066   2.069  49.205  0.00  0.00    +0.000 A 
ATOM     23  C   UNL     1      22.118   1.885  48.311  0.00  0.00    +0.000 A 
ATOM     24  C   UNL     1      22.986   2.940  48.026  0.00  0.00    +0.000 A 
ENDBRANCH  18  19
ENDBRANCH  15  18
ENDBRANCH  14  15
ENDBRANCH   7  13
BRANCH  10  25
ATOM     25  O   UNL     1      21.295   0.564  52.135  0.00  0.00    +0.000 OA
ATOM     26  C   UNL     1      20.543   1.354  53.048  0.00  0.00    +0.000 C 
ENDBRANCH  10  25
TORSDOF 6
ENDMDL
MODEL 5
REMARK VINA RESULT:    -7.447      3.187      5.825
REMARK INTER + INTRA:         -11.265
REMARK INTER:                 -10.263
REMARK INTRA:                  -1.003
REMARK UNBOUND:                -1.207
REMARK  Name = 
REMARK  10 active torsions:
REMARK  status: ('A' for Active; 'I' for Inactive)
REMARK    1  A    between atoms: C_1  and  O_2
REMARK    2  A    between atoms: O_2  and  C_3
REMARK    3  A    between atoms: C_9  and  C_10
REMARK    4  A    between atoms: C_11  and  C_12
REMARK    5  A    between atoms: C_12  and  C_13
REMARK    6  A    between atoms: C_12  and  C_14
REMARK    7  A    between atoms: C_12  and  C_15
REMARK    8  A    between atoms: C_15  and  C_16
REMARK    9  A    between atoms: C_24  and  O_25
REMARK   10  A    between atoms: O_25  and  C_26
REMARK                            x       y       z     vdW  Elec       q    Type
REMARK                         _______ _______ _______ _____ _____    ______ ____
ROOT
ATOM      1  C   UNL     1      18.832  -1.540  53.504  0.00  0.00    +0.000 A 
ATOM      2  C   UNL     1      18.123  -1.024  52.407  0.00  0.00    +0.000 A 
ATOM      3  C   UNL     1      18.644  -0.021  51.592  0.00  0.00    +0.000 A 
ATOM      4  N   UNL     1      17.913   0.484  50.589  0.00  0.00    +0.000 NA
ATOM      5  C   UNL     1      18.466   1.472  49.858  0.00  0.00    +0.000 A 
ATOM      6  N   UNL     1      19.680   1.994  50.027  0.00  0.00    +0.000 NA
ATOM      7  C   UNL     1      20.391   1.463  51.040  0.00  0.00    +0.000 A 
ATOM      8  C   UNL     1      19.930   0.447  51.874  0.00  0.00    +0.000 A 
ATOM      9  C   UNL     1      20.675  -0.110  52.940  0.00  0.00    +0.000 A 
ATOM     10  C   UNL     1      20.131  -1.090  53.762  0.00  0.00    +0.000 A 
ENDROOT
BRANCH   1  12
ATOM     11  C   UNL     1      17.346  -3.381  53.468  0.00  0.00    +0.000 C 
ATOM     12  O   UNL     1      18.155  -2.489  54.233  0.00  0.00    +0.000 OA
ENDBRANCH   1  12
BRANCH   7  13
ATOM     13  C   UNL     1      21.682   2.061  51.236  0.00  0.00    +0.000 C 
ATOM     14  C   UNL     1      22.729   2.590  51.490  0.00  0.00    +0.000 C 
BRANCH  14  15
ATOM     15  C   UNL     1      24.009   3.265  51.826  0.00  0.00    +0.000 C 
ATOM     16  C   UNL     1      25.063   2.884  50.764  0.00  0.00    +0.000 C 
ATOM     17  C   UNL     1      23.803   4.785  51.778  0.00  0.00    +0.000 C 
BRANCH  15  18
ATOM     18  C   UNL     1      24.550   2.799  53.207  0.00  0.00    +0.000 C 
BRANCH  18  19
ATOM     19  C   UNL     1      25.475   1.602  53.204  0.00  0.00    +0.000 A 
ATOM     20  C   UNL     1      24.956   0.303  53.113  0.00  0.00    +0.000 A 
ATOM     21  C   UNL     1      25.810  -0.802  53.106  0.00  0.00    +0.000 A 
ATOM     22  C   UNL     1      27.188  -0.617  53.187  0.00  0.00    +0.000 A 
ATOM     23  C   UNL     1      27.714   0.668  53.279  0.00  0.00    +0.000 A 
ATOM     24  C   UNL     1      26.863   1.774  53.287  0.00  0.00    +0.000 A 
ENDBRANCH  18  19
ENDBRANCH  15  18
ENDBRANCH  14  15
ENDBRANCH   7  13
BRANCH  10  25
ATOM     25  O   UNL     1      20.869  -1.690  54.744  0.00  0.00    +0.000 OA
ATOM     26  C   UNL     1      22.177  -1.171  54.948  0.00  0.00    +0.000 C 
ENDBRANCH  10  25
TORSDOF 6
ENDMDL
MODEL 6
REMARK VINA RESULT:    -7.437      2.474      4.523
REMARK INTER + INTRA:         -11.252
REMARK INTER:                  -9.798
REMARK INTRA:                  -1.454
REMARK UNBOUND:                -1.207
REMARK  Name = 
REMARK  10 active torsions:
REMARK  status: ('A' for Active; 'I' for Inactive)
REMARK    1  A    between atoms: C_1  and  O_2
REMARK    2  A    between atoms: O_2  and  C_3
REMARK    3  A    between atoms: C_9  and  C_10
REMARK    4  A    between atoms: C_11  and  C_12
REMARK    5  A    between atoms: C_12  and  C_13
REMARK    6  A    between atoms: C_12  and  C_14
REMARK    7  A    between atoms: C_12  and  C_15
REMARK    8  A    between atoms: C_15  and  C_16
REMARK    9  A    between atoms: C_24  and  O_25
REMARK   10  A    between atoms: O_25  and  C_26
REMARK                            x       y       z     vdW  Elec       q    Type
REMARK                         _______ _______ _______ _____ _____    ______ ____
ROOT
ATOM      1  C   UNL     1      26.271   2.097  52.422  0.00  0.00    +0.000 A 
ATOM      2  C   UNL     1      26.127   0.977  53.256  0.00  0.00    +0.000 A 
ATOM      3  C   UNL     1      24.920   0.291  53.377  0.00  0.00    +0.000 A 
ATOM      4  N   UNL     1      24.809  -0.738  54.228  0.00  0.00    +0.000 NA
ATOM      5  C   UNL     1      23.605  -1.337  54.317  0.00  0.00    +0.000 A 
ATOM      6  N   UNL     1      22.509  -1.013  53.632  0.00  0.00    +0.000 NA
ATOM      7  C   UNL     1      22.654   0.022  52.785  0.00  0.00    +0.000 A 
ATOM      8  C   UNL     1      23.840   0.731  52.607  0.00  0.00    +0.000 A 
ATOM      9  C   UNL     1      23.993   1.822  51.719  0.00  0.00    +0.000 A 
ATOM     10  C   UNL     1      25.196   2.513  51.630  0.00  0.00    +0.000 A 
ENDROOT
BRANCH   1  12
ATOM     11  C   UNL     1      28.436   2.105  53.375  0.00  0.00    +0.000 C 
ATOM     12  O   UNL     1      27.513   2.686  52.456  0.00  0.00    +0.000 OA
ENDBRANCH   1  12
BRANCH   7  13
ATOM     13  C   UNL     1      21.455   0.387  52.082  0.00  0.00    +0.000 C 
ATOM     14  C   UNL     1      20.424   0.739  51.579  0.00  0.00    +0.000 C 
BRANCH  14  15
ATOM     15  C   UNL     1      19.134   1.175  50.985  0.00  0.00    +0.000 C 
ATOM     16  C   UNL     1      18.102   0.039  51.154  0.00  0.00    +0.000 C 
ATOM     17  C   UNL     1      18.624   2.409  51.743  0.00  0.00    +0.000 C 
BRANCH  15  18
ATOM     18  C   UNL     1      19.276   1.451  49.462  0.00  0.00    +0.000 C 
BRANCH  18  19
ATOM     19  C   UNL     1      20.531   2.168  49.016  0.00  0.00    +0.000 A 
ATOM     20  C   UNL     1      20.683   3.543  49.245  0.00  0.00    +0.000 A 
ATOM     21  C   UNL     1      21.843   4.205  48.838  0.00  0.00    +0.000 A 
ATOM     22  C   UNL     1      22.860   3.499  48.201  0.00  0.00    +0.000 A 
ATOM     23  C   UNL     1      22.720   2.134  47.967  0.00  0.00    +0.000 A 
ATOM     24  C   UNL     1      21.561   1.470  48.373  0.00  0.00    +0.000 A 
ENDBRANCH  18  19
ENDBRANCH  15  18
ENDBRANCH  14  15
ENDBRANCH   7  13
BRANCH  10  25
ATOM     25  O   UNL     1      25.378   3.516  50.718  0.00  0.00    +0.000 OA
ATOM     26  C   UNL     1      26.263   3.229  49.643  0.00  0.00    +0.000 C 
ENDBRANCH  10  25
TORSDOF 6
ENDMDL
MODEL 7
REMARK VINA RESULT:    -7.425      1.895      3.408
REMARK INTER + INTRA:         -11.236
REMARK INTER:                  -9.822
REMARK INTRA:                  -1.414
REMARK UNBOUND:                -1.207
REMARK  Name = 
REMARK  10 active torsions:
REMARK  status: ('A' for Active; 'I' for Inactive)
REMARK    1  A    between atoms: C_1  and  O_2
REMARK    2  A    between atoms: O_2  and  C_3
REMARK    3  A    between atoms: C_9  and  C_10
REMARK    4  A    between atoms: C_11  and  C_12
REMARK    5  A    between atoms: C_12  and  C_13
REMARK    6  A    between atoms: C_12  and  C_14
REMARK    7  A    between atoms: C_12  and  C_15
REMARK    8  A    between atoms: C_15  and  C_16
REMARK    9  A    between atoms: C_24  and  O_25
REMARK   10  A    between atoms: O_25  and  C_26
REMARK                            x       y       z     vdW  Elec       q    Type
REMARK                         _______ _______ _______ _____ _____    ______ ____
ROOT
ATOM      1  C   UNL     1      27.202   1.755  52.744  0.00  0.00    +0.000 A 
ATOM      2  C   UNL     1      26.589   0.767  53.530  0.00  0.00    +0.000 A 
ATOM      3  C   UNL     1      25.251   0.413  53.368  0.00  0.00    +0.000 A 
ATOM      4  N   UNL     1      24.688  -0.494  54.177  0.00  0.00    +0.000 NA
ATOM      5  C   UNL     1      23.383  -0.768  53.983  0.00  0.00    +0.000 A 
ATOM      6  N   UNL     1      22.592  -0.230  53.056  0.00  0.00    +0.000 NA
ATOM      7  C   UNL     1      23.187   0.675  52.258  0.00  0.00    +0.000 A 
ATOM      8  C   UNL     1      24.524   1.053  52.360  0.00  0.00    +0.000 A 
ATOM      9  C   UNL     1      25.151   2.007  51.524  0.00  0.00    +0.000 A 
ATOM     10  C   UNL     1      26.479   2.369  51.716  0.00  0.00    +0.000 A 
ENDROOT
BRANCH   1  12
ATOM     11  C   UNL     1      29.042   1.241  54.138  0.00  0.00    +0.000 C 
ATOM     12  O   UNL     1      28.513   2.018  53.065  0.00  0.00    +0.000 OA
ENDBRANCH   1  12
BRANCH   7  13
ATOM     13  C   UNL     1      22.314   1.276  51.288  0.00  0.00    +0.000 C 
ATOM     14  C   UNL     1      21.656   1.849  50.465  0.00  0.00    +0.000 C 
BRANCH  14  15
ATOM     15  C   UNL     1      20.854   2.586  49.454  0.00  0.00    +0.000 C 
ATOM     16  C   UNL     1      21.566   2.484  48.088  0.00  0.00    +0.000 C 
ATOM     17  C   UNL     1      19.473   1.929  49.330  0.00  0.00    +0.000 C 
BRANCH  15  18
ATOM     18  C   UNL     1      20.746   4.096  49.809  0.00  0.00    +0.000 C 
BRANCH  18  19
ATOM     19  C   UNL     1      22.040   4.815  50.122  0.00  0.00    +0.000 A 
ATOM     20  C   UNL     1      22.487   4.929  51.445  0.00  0.00    +0.000 A 
ATOM     21  C   UNL     1      23.684   5.588  51.734  0.00  0.00    +0.000 A 
ATOM     22  C   UNL     1      24.444   6.136  50.702  0.00  0.00    +0.000 A 
ATOM     23  C   UNL     1      24.008   6.028  49.384  0.00  0.00    +0.000 A 
ATOM     24  C   UNL     1      22.812   5.370  49.094  0.00  0.00    +0.000 A 
ENDBRANCH  18  19
ENDBRANCH  15  18
ENDBRANCH  14  15
ENDBRANCH   7  13
BRANCH  10  25
ATOM     25  O   UNL     1      27.115   3.230  50.864  0.00  0.00    +0.000 OA
ATOM     26  C   UNL     1      26.548   3.358  49.567  0.00  0.00    +0.000 C 
ENDBRANCH  10  25
TORSDOF 6
ENDMDL
MODEL 8
REMARK VINA RESULT:    -7.212      2.622      6.546
REMARK INTER + INTRA:         -10.948
REMARK INTER:                  -9.857
REMARK INTRA:                  -1.091
REMARK UNBOUND:                -1.207
REMARK  Name = 
REMARK  10 active torsions:
REMARK  status: ('A' for Active; 'I' for Inactive)
REMARK    1  A    between atoms: C_1  and  O_2
REMARK    2  A    between atoms: O_2  and  C_3
REMARK    3  A    between atoms: C_9  and  C_10
REMARK    4  A    between atoms: C_11  and  C_12
REMARK    5  A    between atoms: C_12  and  C_13
REMARK    6  A    between atoms: C_12  and  C_14
REMARK    7  A    between atoms: C_12  and  C_15
REMARK    8  A    between atoms: C_15  and  C_16
REMARK    9  A    between atoms: C_24  and  O_25
REMARK   10  A    between atoms: O_25  and  C_26
REMARK                            x       y       z     vdW  Elec       q    Type
REMARK                         _______ _______ _______ _____ _____    ______ ____
ROOT
ATOM      1  C   UNL     1      26.766   4.440  49.233  0.00  0.00    +0.000 A 
ATOM      2  C   UNL     1      26.057   5.575  48.809  0.00  0.00    +0.000 A 
ATOM      3  C   UNL     1      24.673   5.676  48.934  0.00  0.00    +0.000 A 
ATOM      4  N   UNL     1      24.028   6.752  48.465  0.00  0.00    +0.000 NA
ATOM      5  C   UNL     1      22.686   6.772  48.593  0.00  0.00    +0.000 A 
ATOM      6  N   UNL     1      21.932   5.827  49.152  0.00  0.00    +0.000 NA
ATOM      7  C   UNL     1      22.610   4.761  49.616  0.00  0.00    +0.000 A 
ATOM      8  C   UNL     1      23.993   4.614  49.536  0.00  0.00    +0.000 A 
ATOM      9  C   UNL     1      24.706   3.492  50.021  0.00  0.00    +0.000 A 
ATOM     10  C   UNL     1      26.084   3.394  49.864  0.00  0.00    +0.000 A 
ENDROOT
BRANCH   1  12
ATOM     11  C   UNL     1      28.575   5.630  48.282  0.00  0.00    +0.000 C 
ATOM     12  O   UNL     1      28.119   4.480  48.993  0.00  0.00    +0.000 OA
ENDBRANCH   1  12
BRANCH   7  13
ATOM     13  C   UNL     1      21.782   3.731  50.180  0.00  0.00    +0.000 C 
ATOM     14  C   UNL     1      21.156   2.866  50.727  0.00  0.00    +0.000 C 
BRANCH  14  15
ATOM     15  C   UNL     1      20.409   1.783  51.417  0.00  0.00    +0.000 C 
ATOM     16  C   UNL     1      18.896   2.018  51.216  0.00  0.00    +0.000 C 
ATOM     17  C   UNL     1      20.777   0.435  50.784  0.00  0.00    +0.000 C 
BRANCH  15  18
ATOM     18  C   UNL     1      20.681   1.795  52.948  0.00  0.00    +0.000 C 
BRANCH  18  19
ATOM     19  C   UNL     1      21.697   0.802  53.465  0.00  0.00    +0.000 A 
ATOM     20  C   UNL     1      21.295  -0.268  54.277  0.00  0.00    +0.000 A 
ATOM     21  C   UNL     1      22.232  -1.189  54.751  0.00  0.00    +0.000 A 
ATOM     22  C   UNL     1      23.577  -1.049  54.415  0.00  0.00    +0.000 A 
ATOM     23  C   UNL     1      23.987   0.010  53.611  0.00  0.00    +0.000 A 
ATOM     24  C   UNL     1      23.052   0.932  53.136  0.00  0.00    +0.000 A 
ENDBRANCH  18  19
ENDBRANCH  15  18
ENDBRANCH  14  15
ENDBRANCH   7  13
BRANCH  10  25
ATOM     25  O   UNL     1      26.792   2.353  50.399  0.00  0.00    +0.000 OA
ATOM     26  C   UNL     1      26.688   2.185  51.807  0.00  0.00    +0.000 C 
ENDBRANCH  10  25
TORSDOF 6
ENDMDL
MODEL 9
REMARK VINA RESULT:    -7.211      1.362      2.024
REMARK INTER + INTRA:         -10.948
REMARK INTER:                  -9.862
REMARK INTRA:                  -1.086
REMARK UNBOUND:                -1.207
REMARK  Name = 
REMARK  10 active torsions:
REMARK  status: ('A' for Active; 'I' for Inactive)
REMARK    1  A    between atoms: C_1  and  O_2
REMARK    2  A    between atoms: O_2  and  C_3
REMARK    3  A    between atoms: C_9  and  C_10
REMARK    4  A    between atoms: C_11  and  C_12
REMARK    5  A    between atoms: C_12  and  C_13
REMARK    6  A    between atoms: C_12  and  C_14
REMARK    7  A    between atoms: C_12  and  C_15
REMARK    8  A    between atoms: C_15  and  C_16
REMARK    9  A    between atoms: C_24  and  O_25
REMARK   10  A    between atoms: O_25  and  C_26
REMARK                            x       y       z     vdW  Elec       q    Type
REMARK                         _______ _______ _______ _____ _____    ______ ____
ROOT
ATOM      1  C   UNL     1      24.366   1.014  53.244  0.00  0.00    +0.000 A 
ATOM      2  C   UNL     1      23.069   0.648  52.850  0.00  0.00    +0.000 A 
ATOM      3  C   UNL     1      22.264   1.483  52.078  0.00  0.00    +0.000 A 
ATOM      4  N   UNL     1      21.012   1.121  51.772  0.00  0.00    +0.000 NA
ATOM      5  C   UNL     1      20.278   1.988  51.046  0.00  0.00    +0.000 A 
ATOM      6  N   UNL     1      20.680   3.175  50.592  0.00  0.00    +0.000 NA
ATOM      7  C   UNL     1      21.943   3.508  50.914  0.00  0.00    +0.000 A 
ATOM      8  C   UNL     1      22.800   2.706  51.665  0.00  0.00    +0.000 A 
ATOM      9  C   UNL     1      24.127   3.056  52.007  0.00  0.00    +0.000 A 
ATOM     10  C   UNL     1      24.908   2.225  52.801  0.00  0.00    +0.000 A 
ENDROOT
BRANCH   1  12
ATOM     11  C   UNL     1      25.662  -0.962  53.350  0.00  0.00    +0.000 C 
ATOM     12  O   UNL     1      25.007   0.098  54.045  0.00  0.00    +0.000 OA
ENDBRANCH   1  12
BRANCH   7  13
ATOM     13  C   UNL     1      22.351   4.806  50.451  0.00  0.00    +0.000 C 
ATOM     14  C   UNL     1      22.781   5.872  50.107  0.00  0.00    +0.000 C 
BRANCH  14  15
ATOM     15  C   UNL     1      23.333   7.192  49.707  0.00  0.00    +0.000 C 
ATOM     16  C   UNL     1      22.160   8.156  49.429  0.00  0.00    +0.000 C 
ATOM     17  C   UNL     1      24.163   7.761  50.866  0.00  0.00    +0.000 C 
BRANCH  15  18
ATOM     18  C   UNL     1      24.166   7.084  48.398  0.00  0.00    +0.000 C 
BRANCH  18  19
ATOM     19  C   UNL     1      25.511   6.401  48.504  0.00  0.00    +0.000 A 
ATOM     20  C   UNL     1      26.677   7.061  48.092  0.00  0.00    +0.000 A 
ATOM     21  C   UNL     1      27.920   6.432  48.194  0.00  0.00    +0.000 A 
ATOM     22  C   UNL     1      28.008   5.141  48.710  0.00  0.00    +0.000 A 
ATOM     23  C   UNL     1      26.856   4.476  49.121  0.00  0.00    +0.000 A 
ATOM     24  C   UNL     1      25.612   5.102  49.019  0.00  0.00    +0.000 A 
ENDBRANCH  18  19
ENDBRANCH  15  18
ENDBRANCH  14  15
ENDBRANCH   7  13
BRANCH  10  25
ATOM     25  O   UNL     1      26.217   2.517  53.070  0.00  0.00    +0.000 OA
ATOM     26  C   UNL     1      27.157   2.155  52.067  0.00  0.00    +0.000 C 
ENDBRANCH  10  25
TORSDOF 6
ENDMDL
