REMARK  Name = 
REMARK  15 active torsions:
REMARK  status: ('A' for Active; 'I' for Inactive)
REMARK    1  A    between atoms: C_1  and  C_2
REMARK    2  A    between atoms: C_2  and  C_3
REMARK    3  A    between atoms: C_3  and  N_4
REMARK    4  A    between atoms: C_7  and  C_8
REMARK    5  A    between atoms: C_10  and  O_11
REMARK    6  A    between atoms: O_11  and  C_12
REMARK    7  A    between atoms: C_13  and  N_14
REMARK    8  A    between atoms: C_19  and  C_20
REMARK    9  A    between atoms: C_21  and  C_22
REMARK   10  A    between atoms: C_25  and  O_26
REMARK   11  A    between atoms: O_26  and  C_27
REMARK   12  A    between atoms: C_27  and  C_28
REMARK   13  A    between atoms: C_29  and  C_30
REMARK   14  A    between atoms: N_32  and  C_33
REMARK   15  A    between atoms: C_51  and  C_52
REMARK                            x       y       z     vdW  Elec       q    Type
REMARK                         _______ _______ _______ _____ _____    ______ ____
ROOT
ATOM      1  C   UNL     1       1.075  -4.800  11.009  0.00  0.00    +0.000 A 
ATOM      2  C   UNL     1       2.142  -3.940  11.235  0.00  0.00    +0.000 A 
ATOM      3  N   UNL     1       3.349  -4.588  11.035  0.00  0.00    +0.000 NA
ATOM      4  C   UNL     1       3.042  -5.809  10.652  0.00  0.00    +0.000 A 
ATOM      5  C   UNL     1       3.876  -6.899  10.265  0.00  0.00    +0.000 A 
ATOM      6  C   UNL     1       3.327  -8.072   9.893  0.00  0.00    +0.000 A 
ATOM      7  C   UNL     1       1.886  -8.249   9.855  0.00  0.00    +0.000 A 
ATOM      8  C   UNL     1       1.090  -7.219  10.200  0.00  0.00    +0.000 A 
ATOM      9  N   UNL     1       1.660  -6.002  10.612  0.00  0.00    +0.000 N 
ENDROOT
BRANCH   1  15
ATOM     10  N   UNL     1      -2.264  -2.091   9.146  0.00  0.00    +0.000 N 
ATOM     11  C   UNL     1      -1.907  -3.065  10.077  0.00  0.00    +0.000 A 
ATOM     12  N   UNL     1      -2.904  -3.663  10.745  0.00  0.00    +0.000 NA
ATOM     13  C   UNL     1      -2.567  -4.716  11.522  0.00  0.00    +0.000 A 
ATOM     14  C   UNL     1      -1.294  -5.208  11.653  0.00  0.00    +0.000 A 
ATOM     15  C   UNL     1      -0.344  -4.501  10.973  0.00  0.00    +0.000 A 
ATOM     16  N   UNL     1      -0.630  -3.430  10.217  0.00  0.00    +0.000 NA
ATOM     17  H   UNL     1      -3.104  -1.616   9.339  0.00  0.00    +0.000 HD
BRANCH  10  21
ATOM     18  C   UNL     1      -0.101  -0.543   5.807  0.00  0.00    +0.000 A 
ATOM     19  C   UNL     1       0.081  -1.882   6.238  0.00  0.00    +0.000 A 
ATOM     20  C   UNL     1      -0.655  -2.441   7.267  0.00  0.00    +0.000 A 
ATOM     21  C   UNL     1      -1.602  -1.683   7.968  0.00  0.00    +0.000 A 
ATOM     22  C   UNL     1      -1.842  -0.369   7.505  0.00  0.00    +0.000 A 
ATOM     23  C   UNL     1      -1.124   0.204   6.424  0.00  0.00    +0.000 A 
ATOM     24  C   UNL     1      -1.447   1.621   6.022  0.00  0.00    +0.000 C 
BRANCH  18  28
ATOM     25  N   UNL     1       3.297  -0.472   3.141  0.00  0.00    +0.000 N 
ATOM     26  C   UNL     1       3.362   0.385   4.334  0.00  0.00    +0.000 C 
ATOM     27  C   UNL     1       2.296   0.020   5.362  0.00  0.00    +0.000 C 
ATOM     28  C   UNL     1       0.874   0.004   4.774  0.00  0.00    +0.000 C 
ATOM     29  C   UNL     1       0.852  -0.806   3.468  0.00  0.00    +0.000 C 
ATOM     30  C   UNL     1       1.967  -0.378   2.513  0.00  0.00    +0.000 C 
ATOM     31  H   UNL     1       3.463  -1.431   3.446  0.00  0.00    +0.000 HD
BRANCH  25  32
ATOM     32  C   UNL     1       4.337  -0.115   2.157  0.00  0.00    +0.000 C 
BRANCH  32  34
ATOM     33  C   UNL     1       6.147  -1.730   2.995  0.00  0.00    +0.000 C 
ATOM     34  C   UNL     1       5.794  -0.300   2.615  0.00  0.00    +0.000 C 
ENDBRANCH  32  34
ENDBRANCH  25  32
ENDBRANCH  18  28
BRANCH  20  35
ATOM     35  O   UNL     1      -0.312  -3.743   7.531  0.00  0.00    +0.000 OA
ATOM     36  C   UNL     1      -1.379  -4.666   7.366  0.00  0.00    +0.000 C 
ENDBRANCH  20  35
ENDBRANCH  10  21
ENDBRANCH   1  15
BRANCH   2  37
ATOM     37  C   UNL     1       2.080  -2.495  11.488  0.00  0.00    +0.000 A 
ATOM     38  C   UNL     1       2.974  -1.714  10.767  0.00  0.00    +0.000 A 
ATOM     39  C   UNL     1       2.957  -0.328  10.956  0.00  0.00    +0.000 A 
ATOM     40  C   UNL     1       2.072   0.308  11.877  0.00  0.00    +0.000 A 
ATOM     41  C   UNL     1       1.119  -0.438  12.606  0.00  0.00    +0.000 A 
ATOM     42  C   UNL     1       1.175  -1.854  12.388  0.00  0.00    +0.000 A 
BRANCH  41  43
ATOM     43  C   UNL     1       0.021   0.049  13.628  0.00  0.00    +0.000 C 
ATOM     44  O   UNL     1      -0.522  -0.806  14.325  0.00  0.00    +0.000 OA
ATOM     45  N   UNL     1      -0.329   1.400  13.699  0.00  0.00    +0.000 N 
ATOM     46  H   UNL     1       0.201   1.981  13.107  0.00  0.00    +0.000 HD
BRANCH  45  47
ATOM     47  C   UNL     1      -1.328   2.110  14.481  0.00  0.00    +0.000 A 
ATOM     48  C   UNL     1      -2.255   1.627  15.412  0.00  0.00    +0.000 A 
ATOM     49  F   UNL     1      -2.132   0.428  15.993  0.00  0.00    +0.000 F 
ATOM     50  C   UNL     1      -3.366   2.415  15.817  0.00  0.00    +0.000 A 
ATOM     51  C   UNL     1      -3.538   3.717  15.347  0.00  0.00    +0.000 A 
ATOM     52  C   UNL     1      -2.525   4.279  14.586  0.00  0.00    +0.000 A 
ATOM     53  C   UNL     1      -1.438   3.486  14.192  0.00  0.00    +0.000 A 
ATOM     54  F   UNL     1      -0.457   4.081  13.495  0.00  0.00    +0.000 F 
ENDBRANCH  45  47
ENDBRANCH  41  43
BRANCH  40  55
ATOM     55  O   UNL     1       2.297   1.655  11.925  0.00  0.00    +0.000 OA
BRANCH  55  56
ATOM     56  C   UNL     1       2.627   2.199  13.198  0.00  0.00    +0.000 C 
ATOM     57  C   UNL     1       3.616   1.454  14.072  0.00  0.00    +0.000 C 
ENDBRANCH  55  56
ENDBRANCH  40  55
ENDBRANCH   2  37
TORSDOF 11
