MODEL 1
REMARK VINA RESULT:    -6.896      0.000      0.000
REMARK INTER + INTRA:          -9.654
REMARK INTER:                  -8.912
REMARK INTRA:                  -0.742
REMARK UNBOUND:                -0.742
REMARK  Name = 
REMARK  5 active torsions:
REMARK  status: ('A' for Active; 'I' for Inactive)
REMARK    1  A    between atoms: C_2  and  C_4
REMARK    2  A    between atoms: C_4  and  C_5
REMARK    3  A    between atoms: C_5  and  C_6
REMARK    4  A    between atoms: C_6  and  C_7
REMARK    5  A    between atoms: N_9  and  C_10
REMARK                            x       y       z     vdW  Elec       q    Type
REMARK                         _______ _______ _______ _____ _____    ______ ____
ROOT
ATOM      1  C   UNL     1      22.846   2.023  51.734  0.00  0.00    +0.000 A 
ATOM      2  C   UNL     1      24.054   1.351  51.699  0.00  0.00    +0.000 A 
ATOM      3  C   UNL     1      25.166   1.967  52.248  0.00  0.00    +0.000 A 
ATOM      4  N   UNL     1      26.424   1.398  52.238  0.00  0.00    +0.000 N 
ATOM      5  C   UNL     1      26.722   0.027  51.797  0.00  0.00    +0.000 C 
ATOM      6  C   UNL     1      27.024  -0.867  53.008  0.00  0.00    +0.000 C 
ATOM      7  O   UNL     1      28.098  -0.329  53.799  0.00  0.00    +0.000 OA
ATOM      8  C   UNL     1      27.757   0.986  54.275  0.00  0.00    +0.000 C 
ATOM      9  C   UNL     1      27.472   1.956  53.114  0.00  0.00    +0.000 C 
ATOM     10  N   UNL     1      25.034   3.201  52.768  0.00  0.00    +0.000 NA
ATOM     11  C   UNL     1      23.838   3.807  52.676  0.00  0.00    +0.000 A 
ATOM     12  N   UNL     1      22.727   3.283  52.153  0.00  0.00    +0.000 NA
ENDROOT
BRANCH   1  15
ATOM     13  C   UNL     1      20.631   0.882  51.904  0.00  0.00    +0.000 C 
ATOM     14  O   UNL     1      19.739   0.330  51.256  0.00  0.00    +0.000 OA
ATOM     15  N   UNL     1      21.677   1.453  51.234  0.00  0.00    +0.000 N 
ATOM     16  H   UNL     1      21.591   1.465  50.253  0.00  0.00    +0.000 HD
BRANCH  13  17
ATOM     17  C   UNL     1      20.494   1.111  53.402  0.00  0.00    +0.000 C 
BRANCH  17  18
ATOM     18  C   UNL     1      20.658  -0.155  54.249  0.00  0.00    +0.000 C 
BRANCH  18  19
ATOM     19  C   UNL     1      21.763  -1.120  53.815  0.00  0.00    +0.000 C 
BRANCH  19  21
ATOM     20  O   UNL     1      24.073  -0.663  54.513  0.00  0.00    +0.000 OA
ATOM     21  C   UNL     1      22.976  -1.161  54.704  0.00  0.00    +0.000 C 
ATOM     22  O   UNL     1      22.756  -1.918  55.802  0.00  0.00    +0.000 OA
ENDBRANCH  19  21
ENDBRANCH  18  19
ENDBRANCH  17  18
ENDBRANCH  13  17
ENDBRANCH   1  15
TORSDOF 5
ENDMDL
MODEL 2
REMARK VINA RESULT:    -6.875      1.649      5.254
REMARK INTER + INTRA:          -9.627
REMARK INTER:                  -9.033
REMARK INTRA:                  -0.594
REMARK UNBOUND:                -0.742
REMARK  Name = 
REMARK  5 active torsions:
REMARK  status: ('A' for Active; 'I' for Inactive)
REMARK    1  A    between atoms: C_2  and  C_4
REMARK    2  A    between atoms: C_4  and  C_5
REMARK    3  A    between atoms: C_5  and  C_6
REMARK    4  A    between atoms: C_6  and  C_7
REMARK    5  A    between atoms: N_9  and  C_10
REMARK                            x       y       z     vdW  Elec       q    Type
REMARK                         _______ _______ _______ _____ _____    ______ ____
ROOT
ATOM      1  C   UNL     1      24.422   3.192  52.332  0.00  0.00    +0.000 A 
ATOM      2  C   UNL     1      23.100   2.795  52.424  0.00  0.00    +0.000 A 
ATOM      3  C   UNL     1      22.234   3.149  51.403  0.00  0.00    +0.000 A 
ATOM      4  N   UNL     1      20.891   2.831  51.411  0.00  0.00    +0.000 N 
ATOM      5  C   UNL     1      20.241   1.959  52.401  0.00  0.00    +0.000 C 
ATOM      6  C   UNL     1      19.907   0.598  51.772  0.00  0.00    +0.000 C 
ATOM      7  O   UNL     1      19.091   0.752  50.598  0.00  0.00    +0.000 OA
ATOM      8  C   UNL     1      19.775   1.554  49.617  0.00  0.00    +0.000 C 
ATOM      9  C   UNL     1      20.116   2.953  50.162  0.00  0.00    +0.000 C 
ATOM     10  N   UNL     1      22.705   3.885  50.379  0.00  0.00    +0.000 NA
ATOM     11  C   UNL     1      23.982   4.296  50.423  0.00  0.00    +0.000 A 
ATOM     12  N   UNL     1      24.872   4.005  51.375  0.00  0.00    +0.000 NA
ENDROOT
BRANCH   1  15
ATOM     13  C   UNL     1      25.796   1.607  53.686  0.00  0.00    +0.000 C 
ATOM     14  O   UNL     1      26.555   1.518  54.654  0.00  0.00    +0.000 OA
ATOM     15  N   UNL     1      25.360   2.844  53.301  0.00  0.00    +0.000 N 
ATOM     16  H   UNL     1      25.770   3.602  53.779  0.00  0.00    +0.000 HD
BRANCH  13  17
ATOM     17  C   UNL     1      25.497   0.405  52.802  0.00  0.00    +0.000 C 
BRANCH  17  18
ATOM     18  C   UNL     1      24.761  -0.733  53.517  0.00  0.00    +0.000 C 
BRANCH  18  19
ATOM     19  C   UNL     1      23.264  -0.524  53.756  0.00  0.00    +0.000 C 
BRANCH  19  21
ATOM     20  O   UNL     1      23.302  -1.671  55.927  0.00  0.00    +0.000 OA
ATOM     21  C   UNL     1      22.701  -1.196  54.979  0.00  0.00    +0.000 C 
ATOM     22  O   UNL     1      21.355  -1.301  54.906  0.00  0.00    +0.000 OA
ENDBRANCH  19  21
ENDBRANCH  18  19
ENDBRANCH  17  18
ENDBRANCH  13  17
ENDBRANCH   1  15
TORSDOF 5
ENDMDL
MODEL 3
REMARK VINA RESULT:    -6.834      2.500      6.151
REMARK INTER + INTRA:          -9.573
REMARK INTER:                  -9.001
REMARK INTRA:                  -0.572
REMARK UNBOUND:                -0.742
REMARK  Name = 
REMARK  5 active torsions:
REMARK  status: ('A' for Active; 'I' for Inactive)
REMARK    1  A    between atoms: C_2  and  C_4
REMARK    2  A    between atoms: C_4  and  C_5
REMARK    3  A    between atoms: C_5  and  C_6
REMARK    4  A    between atoms: C_6  and  C_7
REMARK    5  A    between atoms: N_9  and  C_10
REMARK                            x       y       z     vdW  Elec       q    Type
REMARK                         _______ _______ _______ _____ _____    ______ ____
ROOT
ATOM      1  C   UNL     1      23.939   1.965  52.478  0.00  0.00    +0.000 A 
ATOM      2  C   UNL     1      23.687   2.235  51.146  0.00  0.00    +0.000 A 
ATOM      3  C   UNL     1      22.553   1.692  50.567  0.00  0.00    +0.000 A 
ATOM      4  N   UNL     1      22.225   1.872  49.238  0.00  0.00    +0.000 N 
ATOM      5  C   UNL     1      22.931   2.774  48.315  0.00  0.00    +0.000 C 
ATOM      6  C   UNL     1      22.080   4.021  48.036  0.00  0.00    +0.000 C 
ATOM      7  O   UNL     1      20.783   3.665  47.526  0.00  0.00    +0.000 OA
ATOM      8  C   UNL     1      20.085   2.838  48.474  0.00  0.00    +0.000 C 
ATOM      9  C   UNL     1      20.861   1.544  48.783  0.00  0.00    +0.000 C 
ATOM     10  N   UNL     1      21.757   0.904  51.314  0.00  0.00    +0.000 NA
ATOM     11  C   UNL     1      22.133   0.630  52.574  0.00  0.00    +0.000 A 
ATOM     12  N   UNL     1      23.214   1.105  53.195  0.00  0.00    +0.000 NA
ENDROOT
BRANCH   1  15
ATOM     13  C   UNL     1      26.328   2.046  53.202  0.00  0.00    +0.000 C 
ATOM     14  O   UNL     1      27.127   2.620  53.945  0.00  0.00    +0.000 OA
ATOM     15  N   UNL     1      25.041   2.504  53.139  0.00  0.00    +0.000 N 
ATOM     16  H   UNL     1      24.867   3.338  53.633  0.00  0.00    +0.000 HD
BRANCH  13  17
ATOM     17  C   UNL     1      26.786   0.980  52.219  0.00  0.00    +0.000 C 
BRANCH  17  18
ATOM     18  C   UNL     1      26.602  -0.456  52.719  0.00  0.00    +0.000 C 
BRANCH  18  19
ATOM     19  C   UNL     1      27.882  -1.265  52.939  0.00  0.00    +0.000 C 
BRANCH  19  21
ATOM     20  O   UNL     1      30.089  -0.449  53.645  0.00  0.00    +0.000 OA
ATOM     21  C   UNL     1      28.901  -0.635  53.849  0.00  0.00    +0.000 C 
ATOM     22  O   UNL     1      28.360  -0.320  55.048  0.00  0.00    +0.000 OA
ENDBRANCH  19  21
ENDBRANCH  18  19
ENDBRANCH  17  18
ENDBRANCH  13  17
ENDBRANCH   1  15
TORSDOF 5
ENDMDL
MODEL 4
REMARK VINA RESULT:    -6.691      2.351      6.011
REMARK INTER + INTRA:          -9.389
REMARK INTER:                  -9.544
REMARK INTRA:                   0.154
REMARK UNBOUND:                -0.742
REMARK  Name = 
REMARK  5 active torsions:
REMARK  status: ('A' for Active; 'I' for Inactive)
REMARK    1  A    between atoms: C_2  and  C_4
REMARK    2  A    between atoms: C_4  and  C_5
REMARK    3  A    between atoms: C_5  and  C_6
REMARK    4  A    between atoms: C_6  and  C_7
REMARK    5  A    between atoms: N_9  and  C_10
REMARK                            x       y       z     vdW  Elec       q    Type
REMARK                         _______ _______ _______ _____ _____    ______ ____
ROOT
ATOM      1  C   UNL     1      23.935  -0.499  53.806  0.00  0.00    +0.000 A 
ATOM      2  C   UNL     1      23.602   0.357  52.772  0.00  0.00    +0.000 A 
ATOM      3  C   UNL     1      22.329   0.900  52.752  0.00  0.00    +0.000 A 
ATOM      4  N   UNL     1      21.884   1.740  51.751  0.00  0.00    +0.000 N 
ATOM      5  C   UNL     1      22.728   2.287  50.678  0.00  0.00    +0.000 C 
ATOM      6  C   UNL     1      23.007   3.776  50.928  0.00  0.00    +0.000 C 
ATOM      7  O   UNL     1      21.785   4.521  51.060  0.00  0.00    +0.000 OA
ATOM      8  C   UNL     1      21.006   4.012  52.158  0.00  0.00    +0.000 C 
ATOM      9  C   UNL     1      20.653   2.525  51.965  0.00  0.00    +0.000 C 
ATOM     10  N   UNL     1      21.461   0.556  53.722  0.00  0.00    +0.000 NA
ATOM     11  C   UNL     1      21.850  -0.351  54.633  0.00  0.00    +0.000 A 
ATOM     12  N   UNL     1      23.053  -0.925  54.710  0.00  0.00    +0.000 NA
ENDROOT
BRANCH   1  15
ATOM     13  C   UNL     1      26.294  -0.910  53.097  0.00  0.00    +0.000 C 
ATOM     14  O   UNL     1      27.298  -1.592  53.313  0.00  0.00    +0.000 OA
ATOM     15  N   UNL     1      25.207  -1.058  53.912  0.00  0.00    +0.000 N 
ATOM     16  H   UNL     1      25.344  -1.646  54.691  0.00  0.00    +0.000 HD
BRANCH  13  17
ATOM     17  C   UNL     1      26.310   0.220  52.077  0.00  0.00    +0.000 C 
BRANCH  17  18
ATOM     18  C   UNL     1      27.399   1.270  52.320  0.00  0.00    +0.000 C 
BRANCH  18  19
ATOM     19  C   UNL     1      27.607   1.704  53.773  0.00  0.00    +0.000 C 
BRANCH  19  21
ATOM     20  O   UNL     1      29.614   2.492  54.951  0.00  0.00    +0.000 OA
ATOM     21  C   UNL     1      29.030   1.671  54.264  0.00  0.00    +0.000 C 
ATOM     22  O   UNL     1      29.689   0.593  53.785  0.00  0.00    +0.000 OA
ENDBRANCH  19  21
ENDBRANCH  18  19
ENDBRANCH  17  18
ENDBRANCH  13  17
ENDBRANCH   1  15
TORSDOF 5
ENDMDL
MODEL 5
REMARK VINA RESULT:    -6.690      2.672      5.938
REMARK INTER + INTRA:          -9.388
REMARK INTER:                  -8.908
REMARK INTRA:                  -0.479
REMARK UNBOUND:                -0.742
REMARK  Name = 
REMARK  5 active torsions:
REMARK  status: ('A' for Active; 'I' for Inactive)
REMARK    1  A    between atoms: C_2  and  C_4
REMARK    2  A    between atoms: C_4  and  C_5
REMARK    3  A    between atoms: C_5  and  C_6
REMARK    4  A    between atoms: C_6  and  C_7
REMARK    5  A    between atoms: N_9  and  C_10
REMARK                            x       y       z     vdW  Elec       q    Type
REMARK                         _______ _______ _______ _____ _____    ______ ____
ROOT
ATOM      1  C   UNL     1      24.748   0.987  52.980  0.00  0.00    +0.000 A 
ATOM      2  C   UNL     1      23.860   1.209  51.943  0.00  0.00    +0.000 A 
ATOM      3  C   UNL     1      23.487   2.513  51.663  0.00  0.00    +0.000 A 
ATOM      4  N   UNL     1      22.585   2.842  50.672  0.00  0.00    +0.000 N 
ATOM      5  C   UNL     1      22.028   1.894  49.695  0.00  0.00    +0.000 C 
ATOM      6  C   UNL     1      22.658   2.122  48.314  0.00  0.00    +0.000 C 
ATOM      7  O   UNL     1      22.482   3.481  47.878  0.00  0.00    +0.000 OA
ATOM      8  C   UNL     1      23.093   4.388  48.815  0.00  0.00    +0.000 C 
ATOM      9  C   UNL     1      22.489   4.245  50.224  0.00  0.00    +0.000 C 
ATOM     10  N   UNL     1      23.982   3.507  52.425  0.00  0.00    +0.000 NA
ATOM     11  C   UNL     1      24.769   3.183  53.463  0.00  0.00    +0.000 A 
ATOM     12  N   UNL     1      25.162   1.953  53.802  0.00  0.00    +0.000 NA
ENDROOT
BRANCH   1  15
ATOM     13  C   UNL     1      26.383  -0.900  52.994  0.00  0.00    +0.000 C 
ATOM     14  O   UNL     1      26.532  -2.091  53.277  0.00  0.00    +0.000 OA
ATOM     15  N   UNL     1      25.197  -0.293  53.298  0.00  0.00    +0.000 N 
ATOM     16  H   UNL     1      24.566  -0.841  53.820  0.00  0.00    +0.000 HD
BRANCH  13  17
ATOM     17  C   UNL     1      27.547  -0.053  52.501  0.00  0.00    +0.000 C 
BRANCH  17  18
ATOM     18  C   UNL     1      28.808  -0.156  53.364  0.00  0.00    +0.000 C 
BRANCH  18  19
ATOM     19  C   UNL     1      28.782   0.603  54.692  0.00  0.00    +0.000 C 
BRANCH  19  21
ATOM     20  O   UNL     1      28.304   2.888  53.926  0.00  0.00    +0.000 OA
ATOM     21  C   UNL     1      28.949   2.095  54.592  0.00  0.00    +0.000 C 
ATOM     22  O   UNL     1      30.010   2.521  55.314  0.00  0.00    +0.000 OA
ENDBRANCH  19  21
ENDBRANCH  18  19
ENDBRANCH  17  18
ENDBRANCH  13  17
ENDBRANCH   1  15
TORSDOF 5
ENDMDL
MODEL 6
REMARK VINA RESULT:    -6.592      2.201      4.592
REMARK INTER + INTRA:          -9.261
REMARK INTER:                  -8.638
REMARK INTRA:                  -0.624
REMARK UNBOUND:                -0.742
REMARK  Name = 
REMARK  5 active torsions:
REMARK  status: ('A' for Active; 'I' for Inactive)
REMARK    1  A    between atoms: C_2  and  C_4
REMARK    2  A    between atoms: C_4  and  C_5
REMARK    3  A    between atoms: C_5  and  C_6
REMARK    4  A    between atoms: C_6  and  C_7
REMARK    5  A    between atoms: N_9  and  C_10
REMARK                            x       y       z     vdW  Elec       q    Type
REMARK                         _______ _______ _______ _____ _____    ______ ____
ROOT
ATOM      1  C   UNL     1      24.861  -0.157  53.513  0.00  0.00    +0.000 A 
ATOM      2  C   UNL     1      24.546   1.138  53.144  0.00  0.00    +0.000 A 
ATOM      3  C   UNL     1      25.319   1.753  52.174  0.00  0.00    +0.000 A 
ATOM      4  N   UNL     1      25.110   3.052  51.754  0.00  0.00    +0.000 N 
ATOM      5  C   UNL     1      23.969   3.888  52.154  0.00  0.00    +0.000 C 
ATOM      6  C   UNL     1      22.978   4.027  50.989  0.00  0.00    +0.000 C 
ATOM      7  O   UNL     1      23.622   4.552  49.816  0.00  0.00    +0.000 OA
ATOM      8  C   UNL     1      24.693   3.682  49.404  0.00  0.00    +0.000 C 
ATOM      9  C   UNL     1      25.751   3.518  50.510  0.00  0.00    +0.000 C 
ATOM     10  N   UNL     1      26.359   1.078  51.649  0.00  0.00    +0.000 NA
ATOM     11  C   UNL     1      26.638  -0.142  52.136  0.00  0.00    +0.000 A 
ATOM     12  N   UNL     1      25.948  -0.793  53.075  0.00  0.00    +0.000 NA
ENDROOT
BRANCH   1  15
ATOM     13  C   UNL     1      22.776  -1.158  54.454  0.00  0.00    +0.000 C 
ATOM     14  O   UNL     1      22.284  -1.687  55.452  0.00  0.00    +0.000 OA
ATOM     15  N   UNL     1      24.109  -0.853  54.457  0.00  0.00    +0.000 N 
ATOM     16  H   UNL     1      24.611  -1.174  55.241  0.00  0.00    +0.000 HD
BRANCH  13  17
ATOM     17  C   UNL     1      21.984  -1.019  53.162  0.00  0.00    +0.000 C 
BRANCH  17  18
ATOM     18  C   UNL     1      20.723  -0.160  53.287  0.00  0.00    +0.000 C 
BRANCH  18  19
ATOM     19  C   UNL     1      20.929   1.356  53.237  0.00  0.00    +0.000 C 
BRANCH  19  21
ATOM     20  O   UNL     1      19.644   3.298  52.456  0.00  0.00    +0.000 OA
ATOM     21  C   UNL     1      19.947   2.118  52.390  0.00  0.00    +0.000 C 
ATOM     22  O   UNL     1      19.321   1.304  51.511  0.00  0.00    +0.000 OA
ENDBRANCH  19  21
ENDBRANCH  18  19
ENDBRANCH  17  18
ENDBRANCH  13  17
ENDBRANCH   1  15
TORSDOF 5
ENDMDL
MODEL 7
REMARK VINA RESULT:    -6.326      2.426      5.366
REMARK INTER + INTRA:          -8.917
REMARK INTER:                  -8.416
REMARK INTRA:                  -0.502
REMARK UNBOUND:                -0.742
REMARK  Name = 
REMARK  5 active torsions:
REMARK  status: ('A' for Active; 'I' for Inactive)
REMARK    1  A    between atoms: C_2  and  C_4
REMARK    2  A    between atoms: C_4  and  C_5
REMARK    3  A    between atoms: C_5  and  C_6
REMARK    4  A    between atoms: C_6  and  C_7
REMARK    5  A    between atoms: N_9  and  C_10
REMARK                            x       y       z     vdW  Elec       q    Type
REMARK                         _______ _______ _______ _____ _____    ______ ____
ROOT
ATOM      1  C   UNL     1      25.924   3.015  51.699  0.00  0.00    +0.000 A 
ATOM      2  C   UNL     1      24.664   3.583  51.652  0.00  0.00    +0.000 A 
ATOM      3  C   UNL     1      24.173   3.994  50.425  0.00  0.00    +0.000 A 
ATOM      4  N   UNL     1      22.943   4.601  50.270  0.00  0.00    +0.000 N 
ATOM      5  C   UNL     1      21.941   4.749  51.336  0.00  0.00    +0.000 C 
ATOM      6  C   UNL     1      20.776   3.774  51.110  0.00  0.00    +0.000 C 
ATOM      7  O   UNL     1      20.187   3.958  49.811  0.00  0.00    +0.000 OA
ATOM      8  C   UNL     1      21.169   3.743  48.782  0.00  0.00    +0.000 C 
ATOM      9  C   UNL     1      22.359   4.710  48.919  0.00  0.00    +0.000 C 
ATOM     10  N   UNL     1      24.948   3.848  49.333  0.00  0.00    +0.000 NA
ATOM     11  C   UNL     1      26.191   3.366  49.495  0.00  0.00    +0.000 A 
ATOM     12  N   UNL     1      26.737   2.961  50.643  0.00  0.00    +0.000 NA
ENDROOT
BRANCH   1  15
ATOM     13  C   UNL     1      26.176   1.413  53.598  0.00  0.00    +0.000 C 
ATOM     14  O   UNL     1      26.704   1.245  54.700  0.00  0.00    +0.000 OA
ATOM     15  N   UNL     1      26.471   2.546  52.891  0.00  0.00    +0.000 N 
ATOM     16  H   UNL     1      27.175   3.113  53.282  0.00  0.00    +0.000 HD
BRANCH  13  17
ATOM     17  C   UNL     1      25.369   0.309  52.931  0.00  0.00    +0.000 C 
BRANCH  17  18
ATOM     18  C   UNL     1      23.860   0.398  53.176  0.00  0.00    +0.000 C 
BRANCH  18  19
ATOM     19  C   UNL     1      23.151  -0.917  53.509  0.00  0.00    +0.000 C 
BRANCH  19  21
ATOM     20  O   UNL     1      23.115  -1.595  55.870  0.00  0.00    +0.000 OA
ATOM     21  C   UNL     1      22.616  -1.030  54.911  0.00  0.00    +0.000 C 
ATOM     22  O   UNL     1      21.396  -0.458  55.019  0.00  0.00    +0.000 OA
ENDBRANCH  19  21
ENDBRANCH  18  19
ENDBRANCH  17  18
ENDBRANCH  13  17
ENDBRANCH   1  15
TORSDOF 5
ENDMDL
MODEL 8
REMARK VINA RESULT:    -6.300      2.513      5.772
REMARK INTER + INTRA:          -8.883
REMARK INTER:                  -8.589
REMARK INTRA:                  -0.294
REMARK UNBOUND:                -0.742
REMARK  Name = 
REMARK  5 active torsions:
REMARK  status: ('A' for Active; 'I' for Inactive)
REMARK    1  A    between atoms: C_2  and  C_4
REMARK    2  A    between atoms: C_4  and  C_5
REMARK    3  A    between atoms: C_5  and  C_6
REMARK    4  A    between atoms: C_6  and  C_7
REMARK    5  A    between atoms: N_9  and  C_10
REMARK                            x       y       z     vdW  Elec       q    Type
REMARK                         _______ _______ _______ _____ _____    ______ ____
ROOT
ATOM      1  C   UNL     1      20.786   0.269  53.498  0.00  0.00    +0.000 A 
ATOM      2  C   UNL     1      21.304   1.320  52.764  0.00  0.00    +0.000 A 
ATOM      3  C   UNL     1      20.575   1.794  51.687  0.00  0.00    +0.000 A 
ATOM      4  N   UNL     1      21.015   2.817  50.871  0.00  0.00    +0.000 N 
ATOM      5  C   UNL     1      22.214   3.631  51.119  0.00  0.00    +0.000 C 
ATOM      6  C   UNL     1      21.813   5.036  51.591  0.00  0.00    +0.000 C 
ATOM      7  O   UNL     1      20.937   5.674  50.647  0.00  0.00    +0.000 OA
ATOM      8  C   UNL     1      19.741   4.893  50.470  0.00  0.00    +0.000 C 
ATOM      9  C   UNL     1      20.056   3.474  49.962  0.00  0.00    +0.000 C 
ATOM     10  N   UNL     1      19.407   1.198  51.382  0.00  0.00    +0.000 NA
ATOM     11  C   UNL     1      19.030   0.128  52.101  0.00  0.00    +0.000 A 
ATOM     12  N   UNL     1      19.683  -0.392  53.142  0.00  0.00    +0.000 NA
ENDROOT
BRANCH   1  15
ATOM     13  C   UNL     1      22.613  -0.945  54.691  0.00  0.00    +0.000 C 
ATOM     14  O   UNL     1      22.963  -1.402  55.781  0.00  0.00    +0.000 OA
ATOM     15  N   UNL     1      21.445  -0.239  54.616  0.00  0.00    +0.000 N 
ATOM     16  H   UNL     1      21.004  -0.064  55.479  0.00  0.00    +0.000 HD
BRANCH  13  17
ATOM     17  C   UNL     1      23.541  -0.977  53.486  0.00  0.00    +0.000 C 
BRANCH  17  18
ATOM     18  C   UNL     1      24.655   0.074  53.522  0.00  0.00    +0.000 C 
BRANCH  18  19
ATOM     19  C   UNL     1      25.909  -0.242  52.703  0.00  0.00    +0.000 C 
BRANCH  19  21
ATOM     20  O   UNL     1      27.722  -0.600  54.322  0.00  0.00    +0.000 OA
ATOM     21  C   UNL     1      26.989  -0.996  53.432  0.00  0.00    +0.000 C 
ATOM     22  O   UNL     1      27.141  -2.243  52.931  0.00  0.00    +0.000 OA
ENDBRANCH  19  21
ENDBRANCH  18  19
ENDBRANCH  17  18
ENDBRANCH  13  17
ENDBRANCH   1  15
TORSDOF 5
ENDMDL
MODEL 9
REMARK VINA RESULT:    -6.183      2.713      5.639
REMARK INTER + INTRA:          -8.732
REMARK INTER:                  -7.946
REMARK INTRA:                  -0.786
REMARK UNBOUND:                -0.742
REMARK  Name = 
REMARK  5 active torsions:
REMARK  status: ('A' for Active; 'I' for Inactive)
REMARK    1  A    between atoms: C_2  and  C_4
REMARK    2  A    between atoms: C_4  and  C_5
REMARK    3  A    between atoms: C_5  and  C_6
REMARK    4  A    between atoms: C_6  and  C_7
REMARK    5  A    between atoms: N_9  and  C_10
REMARK                            x       y       z     vdW  Elec       q    Type
REMARK                         _______ _______ _______ _____ _____    ______ ____
ROOT
ATOM      1  C   UNL     1      24.215   3.235  52.677  0.00  0.00    +0.000 A 
ATOM      2  C   UNL     1      23.217   2.304  52.453  0.00  0.00    +0.000 A 
ATOM      3  C   UNL     1      23.429   1.000  52.866  0.00  0.00    +0.000 A 
ATOM      4  N   UNL     1      22.514  -0.014  52.664  0.00  0.00    +0.000 N 
ATOM      5  C   UNL     1      21.154   0.178  52.137  0.00  0.00    +0.000 C 
ATOM      6  C   UNL     1      20.121   0.022  53.263  0.00  0.00    +0.000 C 
ATOM      7  O   UNL     1      20.252  -1.252  53.917  0.00  0.00    +0.000 OA
ATOM      8  C   UNL     1      21.568  -1.389  54.483  0.00  0.00    +0.000 C 
ATOM      9  C   UNL     1      22.664  -1.279  53.407  0.00  0.00    +0.000 C 
ATOM     10  N   UNL     1      24.604   0.685  53.444  0.00  0.00    +0.000 NA
ATOM     11  C   UNL     1      25.544   1.639  53.538  0.00  0.00    +0.000 A 
ATOM     12  N   UNL     1      25.417   2.911  53.154  0.00  0.00    +0.000 NA
ENDROOT
BRANCH   1  15
ATOM     13  C   UNL     1      24.340   5.197  51.137  0.00  0.00    +0.000 C 
ATOM     14  O   UNL     1      24.236   6.423  51.072  0.00  0.00    +0.000 OA
ATOM     15  N   UNL     1      24.060   4.573  52.321  0.00  0.00    +0.000 N 
ATOM     16  H   UNL     1      23.694   5.156  53.026  0.00  0.00    +0.000 HD
BRANCH  13  17
ATOM     17  C   UNL     1      24.579   4.356  49.892  0.00  0.00    +0.000 C 
BRANCH  17  18
ATOM     18  C   UNL     1      23.341   4.176  49.009  0.00  0.00    +0.000 C 
BRANCH  18  19
ATOM     19  C   UNL     1      23.032   2.746  48.560  0.00  0.00    +0.000 C 
BRANCH  19  21
ATOM     20  O   UNL     1      20.840   2.747  49.668  0.00  0.00    +0.000 OA
ATOM     21  C   UNL     1      21.701   2.199  49.000  0.00  0.00    +0.000 C 
ATOM     22  O   UNL     1      21.547   0.912  48.617  0.00  0.00    +0.000 OA
ENDBRANCH  19  21
ENDBRANCH  18  19
ENDBRANCH  17  18
ENDBRANCH  13  17
ENDBRANCH   1  15
TORSDOF 5
ENDMDL
