REMARK  Name = 
REMARK  11 active torsions:
REMARK  status: ('A' for Active; 'I' for Inactive)
REMARK    1  A    between atoms: C_1  and  O_2
REMARK    2  A    between atoms: O_2  and  C_3
REMARK    3  A    between atoms: C_6  and  C_7
REMARK    4  A    between atoms: C_15  and  C_16
REMARK    5  A    between atoms: N_21  and  C_22
REMARK    6  A    between atoms: C_26  and  C_27
REMARK    7  A    between atoms: C_27  and  N_28
REMARK    8  A    between atoms: N_31  and  C_32
REMARK    9  A    between atoms: C_35  and  C_36
REMARK   10  A    between atoms: C_39  and  C_40
REMARK   11  A    between atoms: N_42  and  C_43
REMARK                            x       y       z     vdW  Elec       q    Type
REMARK                         _______ _______ _______ _____ _____    ______ ____
ROOT
ATOM      1  C   UNL     1       1.644  -6.854   4.087  0.00  0.00    +0.000 A 
ATOM      2  N   UNL     1       0.935  -7.529   3.118  0.00  0.00    +0.000 NA
ATOM      3  C   UNL     1       1.761  -7.665   2.111  0.00  0.00    +0.000 A 
ATOM      4  C   UNL     1       1.547  -8.238   0.825  0.00  0.00    +0.000 A 
ATOM      5  C   UNL     1       2.541  -8.246  -0.080  0.00  0.00    +0.000 A 
ATOM      6  C   UNL     1       3.834  -7.668   0.224  0.00  0.00    +0.000 A 
ATOM      7  C   UNL     1       4.035  -7.101   1.426  0.00  0.00    +0.000 A 
ATOM      8  N   UNL     1       3.011  -7.109   2.383  0.00  0.00    +0.000 N 
ATOM      9  C   UNL     1       2.959  -6.593   3.679  0.00  0.00    +0.000 A 
ENDROOT
BRANCH   9  10
ATOM     10  C   UNL     1       4.021  -5.801   4.311  0.00  0.00    +0.000 A 
ATOM     11  C   UNL     1       5.368  -6.051   4.235  0.00  0.00    +0.000 A 
ATOM     12  C   UNL     1       6.177  -5.137   4.873  0.00  0.00    +0.000 A 
ATOM     13  N   UNL     1       5.720  -4.080   5.569  0.00  0.00    +0.000 NA
ATOM     14  C   UNL     1       4.392  -3.915   5.602  0.00  0.00    +0.000 A 
ATOM     15  N   UNL     1       3.904  -2.808   6.296  0.00  0.00    +0.000 N 
ATOM     16  N   UNL     1       3.548  -4.745   4.981  0.00  0.00    +0.000 NA
ATOM     17  H   UNL     1       4.523  -2.438   6.966  0.00  0.00    +0.000 HD
BRANCH  15  18
ATOM     18  C   UNL     1       2.673  -2.131   6.196  0.00  0.00    +0.000 A 
ATOM     19  C   UNL     1       1.724  -2.513   5.227  0.00  0.00    +0.000 A 
ATOM     20  C   UNL     1       0.475  -1.918   5.118  0.00  0.00    +0.000 A 
ATOM     21  C   UNL     1       0.108  -0.946   6.026  0.00  0.00    +0.000 A 
ATOM     22  C   UNL     1       0.994  -0.550   7.042  0.00  0.00    +0.000 A 
ATOM     23  C   UNL     1       2.308  -1.107   7.105  0.00  0.00    +0.000 A 
ATOM     24  C   UNL     1       3.287  -0.542   8.110  0.00  0.00    +0.000 C 
BRANCH  22  25
ATOM     25  C   UNL     1       0.457   0.429   8.071  0.00  0.00    +0.000 C 
BRANCH  25  26
ATOM     26  N   UNL     1       1.164   1.707   8.126  0.00  0.00    +0.000 N 
ATOM     27  C   UNL     1       1.089   2.467   6.866  0.00  0.00    +0.000 C 
ATOM     28  C   UNL     1       1.870   3.796   6.980  0.00  0.00    +0.000 C 
ATOM     29  N   UNL     1       1.454   4.669   8.099  0.00  0.00    +0.000 N 
ATOM     30  C   UNL     1       0.169   5.307   7.828  0.00  0.00    +0.000 C 
ATOM     31  C   UNL     1       1.417   3.873   9.344  0.00  0.00    +0.000 C 
ATOM     32  C   UNL     1       0.663   2.529   9.240  0.00  0.00    +0.000 C 
ATOM     33  H   UNL     1       2.147   1.483   8.279  0.00  0.00    +0.000 HD
ATOM     34  H   UNL     1       2.134   5.422   8.207  0.00  0.00    +0.000 HD
ENDBRANCH  25  26
ENDBRANCH  22  25
ENDBRANCH  15  18
ENDBRANCH   9  10
BRANCH   1  38
ATOM     35  C   UNL     1      -0.366  -5.408   7.605  0.00  0.00    +0.000 A 
ATOM     36  C   UNL     1      -1.021  -5.514   6.366  0.00  0.00    +0.000 A 
ATOM     37  C   UNL     1      -0.366  -6.024   5.239  0.00  0.00    +0.000 A 
ATOM     38  C   UNL     1       0.969  -6.422   5.308  0.00  0.00    +0.000 A 
ATOM     39  C   UNL     1       1.599  -6.381   6.552  0.00  0.00    +0.000 A 
ATOM     40  C   UNL     1       0.961  -5.869   7.708  0.00  0.00    +0.000 A 
BRANCH  40  41
ATOM     41  C   UNL     1       1.795  -5.917   8.961  0.00  0.00    +0.000 C 
ATOM     42  O   UNL     1       2.881  -6.490   8.898  0.00  0.00    +0.000 OA
ATOM     43  N   UNL     1       1.257  -5.414  10.133  0.00  0.00    +0.000 N 
ATOM     44  H   UNL     1       0.359  -5.014  10.085  0.00  0.00    +0.000 HD
BRANCH  43  45
ATOM     45  C   UNL     1       1.902  -5.430  11.407  0.00  0.00    +0.000 A 
ATOM     46  C   UNL     1       3.291  -5.480  11.606  0.00  0.00    +0.000 A 
ATOM     47  F   UNL     1       4.165  -5.352  10.597  0.00  0.00    +0.000 F 
ATOM     48  C   UNL     1       3.846  -5.570  12.892  0.00  0.00    +0.000 A 
ATOM     49  C   UNL     1       3.021  -5.586  14.013  0.00  0.00    +0.000 A 
ATOM     50  C   UNL     1       1.644  -5.482  13.840  0.00  0.00    +0.000 A 
ATOM     51  C   UNL     1       1.100  -5.396  12.550  0.00  0.00    +0.000 A 
ATOM     52  F   UNL     1      -0.232  -5.315  12.426  0.00  0.00    +0.000 F 
ENDBRANCH  43  45
ENDBRANCH  40  41
BRANCH  35  54
ATOM     53  C   UNL     1      -2.366  -4.606   8.629  0.00  0.00    +0.000 C 
ATOM     54  O   UNL     1      -0.966  -4.872   8.720  0.00  0.00    +0.000 OA
ENDBRANCH  35  54
ENDBRANCH   1  38
TORSDOF 8
