REMARK  Name = 
REMARK  7 active torsions:
REMARK  status: ('A' for Active; 'I' for Inactive)
REMARK    1  A    between atoms: C_2  and  C_3
REMARK    2  A    between atoms: C_10  and  C_11
REMARK    3  A    between atoms: C_13  and  C_14
REMARK    4  A    between atoms: C_17  and  C_18
REMARK    5  A    between atoms: N_20  and  C_21
REMARK    6  A    between atoms: C_30  and  C_31
REMARK    7  A    between atoms: N_34  and  N_35
REMARK                            x       y       z     vdW  Elec       q    Type
REMARK                         _______ _______ _______ _____ _____    ______ ____
ROOT
ATOM      1  C   UNL     1      -1.444  -0.306  -2.739  0.00  0.00    +0.000 A 
ATOM      2  N   UNL     1      -2.483   0.293  -3.285  0.00  0.00    +0.000 NA
ATOM      3  C   UNL     1      -2.041   0.840  -4.456  0.00  0.00    +0.000 A 
ATOM      4  C   UNL     1      -0.684   0.608  -4.631  0.00  0.00    +0.000 A 
ATOM      5  N   UNL     1      -0.375  -0.276  -3.610  0.00  0.00    +0.000 N 
ENDROOT
BRANCH   1  13
ATOM      6  C   UNL     1       0.275  -1.942   0.107  0.00  0.00    +0.000 C 
ATOM      7  O   UNL     1       1.047  -1.810   1.054  0.00  0.00    +0.000 OA
ATOM      8  N   UNL     1      -0.205  -0.869  -0.645  0.00  0.00    +0.000 N 
ATOM      9  C   UNL     1       0.242   0.476  -0.261  0.00  0.00    +0.000 C 
ATOM     10  C   UNL     1      -0.813   1.234   0.543  0.00  0.00    +0.000 C 
ATOM     11  C   UNL     1      -2.182   1.194  -0.131  0.00  0.00    +0.000 C 
ATOM     12  C   UNL     1      -2.572  -0.244  -0.498  0.00  0.00    +0.000 C 
ATOM     13  C   UNL     1      -1.492  -0.933  -1.369  0.00  0.00    +0.000 C 
BRANCH   6  15
ATOM     14  C   UNL     1      -0.209  -4.313   0.548  0.00  0.00    +0.000 C 
ATOM     15  C   UNL     1      -0.138  -3.305  -0.330  0.00  0.00    +0.000 C 
ENDBRANCH   6  15
ENDBRANCH   1  13
BRANCH   3  16
ATOM     16  C   UNL     1      -2.955   1.624  -5.262  0.00  0.00    +0.000 A 
ATOM     17  C   UNL     1      -3.935   2.385  -4.615  0.00  0.00    +0.000 A 
ATOM     18  C   UNL     1      -4.797   3.204  -5.336  0.00  0.00    +0.000 A 
ATOM     19  C   UNL     1      -4.686   3.268  -6.729  0.00  0.00    +0.000 A 
ATOM     20  C   UNL     1      -3.759   2.461  -7.395  0.00  0.00    +0.000 A 
ATOM     21  C   UNL     1      -2.908   1.629  -6.662  0.00  0.00    +0.000 A 
BRANCH  19  22
ATOM     22  C   UNL     1      -5.491   4.280  -7.453  0.00  0.00    +0.000 C 
ATOM     23  O   UNL     1      -5.794   5.315  -6.867  0.00  0.00    +0.000 OA
ATOM     24  N   UNL     1      -5.867   3.947  -8.736  0.00  0.00    +0.000 N 
ATOM     25  H   UNL     1      -5.570   3.088  -9.116  0.00  0.00    +0.000 HD
BRANCH  24  26
ATOM     26  C   UNL     1      -6.658   4.798  -9.511  0.00  0.00    +0.000 A 
ATOM     27  C   UNL     1      -6.419   6.163  -9.571  0.00  0.00    +0.000 A 
ATOM     28  C   UNL     1      -7.317   6.946 -10.281  0.00  0.00    +0.000 A 
ATOM     29 BR   UNL     1      -7.046   8.812 -10.407  0.00  0.00    +0.000 Br
ATOM     30  C   UNL     1      -8.421   6.366 -10.888  0.00  0.00    +0.000 A 
ATOM     31  C   UNL     1      -8.543   4.991 -10.810  0.00  0.00    +0.000 A 
ATOM     32  N   UNL     1      -7.662   4.191 -10.171  0.00  0.00    +0.000 NA
ENDBRANCH  24  26
ENDBRANCH  19  22
ENDBRANCH   3  16
BRANCH   4  33
ATOM     33  C   UNL     1       0.257   1.118  -5.592  0.00  0.00    +0.000 C 
ATOM     34  N   UNL     1       0.026   2.389  -6.042  0.00  0.00    +0.000 N 
ATOM     35  O   UNL     1       1.263   0.529  -5.971  0.00  0.00    +0.000 OA
ATOM     36  H   UNL     1      -0.777   2.877  -5.749  0.00  0.00    +0.000 HD
ATOM     37  H   UNL     1       0.663   2.815  -6.661  0.00  0.00    +0.000 HD
ENDBRANCH   4  33
BRANCH   5  38
ATOM     38  N   UNL     1       0.848  -0.982  -3.457  0.00  0.00    +0.000 N 
ATOM     39  H   UNL     1       1.555  -0.896  -4.136  0.00  0.00    +0.000 HD
ATOM     40  H   UNL     1       0.989  -1.557  -2.670  0.00  0.00    +0.000 HD
ENDBRANCH   5  38
TORSDOF 7
