MODEL 1
REMARK VINA RESULT:   -10.150      0.000      0.000
REMARK INTER + INTRA:         -16.228
REMARK INTER:                 -14.898
REMARK INTRA:                  -1.330
REMARK UNBOUND:                -1.330
REMARK  Name = 
REMARK  8 active torsions:
REMARK  status: ('A' for Active; 'I' for Inactive)
REMARK    1  A    between atoms: C_2  and  C_3
REMARK    2  A    between atoms: C_9  and  C_10
REMARK    3  A    between atoms: C_10  and  S_11
REMARK    4  A    between atoms: S_11  and  C_12
REMARK    5  A    between atoms: C_14  and  C_15
REMARK    6  A    between atoms: C_22  and  C_23
REMARK    7  A    between atoms: C_27  and  N_28
REMARK    8  A    between atoms: N_28  and  C_29
REMARK                            x       y       z     vdW  Elec       q    Type
REMARK                         _______ _______ _______ _____ _____    ______ ____
ROOT
ATOM      1  C   UNL     1      22.736  -0.443  53.898  0.00  0.00    +0.000 A 
ATOM      2  N   UNL     1      23.988  -0.815  53.968  0.00  0.00    +0.000 NA
ATOM      3  C   UNL     1      24.716   0.275  53.520  0.00  0.00    +0.000 A 
ATOM      4  C   UNL     1      23.877   1.306  53.096  0.00  0.00    +0.000 A 
ATOM      5  N   UNL     1      22.615   0.827  53.413  0.00  0.00    +0.000 N 
ATOM      6  H   UNL     1      21.772   1.323  53.306  0.00  0.00    +0.000 HD
ENDROOT
BRANCH   3   7
ATOM      7  C   UNL     1      26.171   0.282  53.508  0.00  0.00    +0.000 A 
ATOM      8  C   UNL     1      26.863   1.450  53.859  0.00  0.00    +0.000 A 
ATOM      9  C   UNL     1      28.262   1.468  53.869  0.00  0.00    +0.000 A 
ATOM     10  C   UNL     1      28.966   0.319  53.525  0.00  0.00    +0.000 A 
ATOM     11  F   UNL     1      30.305   0.335  53.544  0.00  0.00    +0.000 F 
ATOM     12  C   UNL     1      28.301  -0.842  53.158  0.00  0.00    +0.000 A 
ATOM     13  C   UNL     1      26.905  -0.856  53.135  0.00  0.00    +0.000 A 
ENDBRANCH   3   7
BRANCH   4  14
ATOM     14  C   UNL     1      24.101   2.597  52.434  0.00  0.00    +0.000 A 
ATOM     15  C   UNL     1      23.721   3.786  53.050  0.00  0.00    +0.000 A 
ATOM     16  C   UNL     1      23.950   4.974  52.382  0.00  0.00    +0.000 A 
ATOM     17  N   UNL     1      24.501   5.050  51.156  0.00  0.00    +0.000 NA
ATOM     18  C   UNL     1      24.857   3.907  50.533  0.00  0.00    +0.000 A 
ATOM     19  C   UNL     1      24.695   2.671  51.162  0.00  0.00    +0.000 A 
BRANCH  18  20
ATOM     20  N   UNL     1      25.462   3.975  49.253  0.00  0.00    +0.000 N 
ATOM     21  H   UNL     1      25.235   3.281  48.593  0.00  0.00    +0.000 HD
BRANCH  20  22
ATOM     22  C   UNL     1      26.381   4.992  48.869  0.00  0.00    +0.000 A 
ATOM     23  C   UNL     1      27.737   4.681  48.730  0.00  0.00    +0.000 A 
ATOM     24  C   UNL     1      28.650   5.650  48.295  0.00  0.00    +0.000 A 
ATOM     25  C   UNL     1      28.209   6.931  47.959  0.00  0.00    +0.000 A 
ATOM     26  C   UNL     1      26.855   7.241  48.059  0.00  0.00    +0.000 A 
ATOM     27  C   UNL     1      25.950   6.275  48.494  0.00  0.00    +0.000 A 
ENDBRANCH  20  22
ENDBRANCH  18  20
ENDBRANCH   4  14
BRANCH   1  28
ATOM     28  S   UNL     1      21.317  -1.351  54.290  0.00  0.00    +0.000 S 
BRANCH  28  29
ATOM     29  C   UNL     1      19.982  -0.197  53.790  0.00  0.00    +0.000 C 
BRANCH  29  36
ATOM     30  C   UNL     1      17.165  -1.686  52.801  0.00  0.00    +0.000 C 
ATOM     31  O   UNL     1      17.739  -2.621  53.355  0.00  0.00    +0.000 OA
ATOM     32  N   UNL     1      17.816  -0.515  52.459  0.00  0.00    +0.000 N 
ATOM     33  C   UNL     1      17.308   0.573  51.635  0.00  0.00    +0.000 C 
ATOM     34  C   UNL     1      18.352   0.688  50.543  0.00  0.00    +0.000 C 
ATOM     35  C   UNL     1      19.662   0.458  51.293  0.00  0.00    +0.000 C 
ATOM     36  C   UNL     1      19.290  -0.506  52.439  0.00  0.00    +0.000 C 
BRANCH  30  38
ATOM     37  C   UNL     1      15.141  -3.021  52.402  0.00  0.00    +0.000 C 
ATOM     38  C   UNL     1      15.740  -1.821  52.387  0.00  0.00    +0.000 C 
ENDBRANCH  30  38
ENDBRANCH  29  36
ENDBRANCH  28  29
ENDBRANCH   1  28
TORSDOF 8
ENDMDL
MODEL 2
REMARK VINA RESULT:   -10.040      2.857      8.911
REMARK INTER + INTRA:         -16.066
REMARK INTER:                 -15.572
REMARK INTRA:                  -0.494
REMARK UNBOUND:                -1.330
REMARK  Name = 
REMARK  8 active torsions:
REMARK  status: ('A' for Active; 'I' for Inactive)
REMARK    1  A    between atoms: C_2  and  C_3
REMARK    2  A    between atoms: C_9  and  C_10
REMARK    3  A    between atoms: C_10  and  S_11
REMARK    4  A    between atoms: S_11  and  C_12
REMARK    5  A    between atoms: C_14  and  C_15
REMARK    6  A    between atoms: C_22  and  C_23
REMARK    7  A    between atoms: C_27  and  N_28
REMARK    8  A    between atoms: N_28  and  C_29
REMARK                            x       y       z     vdW  Elec       q    Type
REMARK                         _______ _______ _______ _____ _____    ______ ____
ROOT
ATOM      1  C   UNL     1      23.707   3.186  51.239  0.00  0.00    +0.000 A 
ATOM      2  N   UNL     1      24.945   2.878  51.531  0.00  0.00    +0.000 NA
ATOM      3  C   UNL     1      24.862   1.723  52.291  0.00  0.00    +0.000 A 
ATOM      4  C   UNL     1      23.535   1.366  52.528  0.00  0.00    +0.000 A 
ATOM      5  N   UNL     1      22.827   2.296  51.783  0.00  0.00    +0.000 N 
ATOM      6  H   UNL     1      21.850   2.312  51.667  0.00  0.00    +0.000 HD
ENDROOT
BRANCH   3   7
ATOM      7  C   UNL     1      26.047   1.020  52.761  0.00  0.00    +0.000 A 
ATOM      8  C   UNL     1      26.835   1.587  53.773  0.00  0.00    +0.000 A 
ATOM      9  C   UNL     1      27.966   0.916  54.248  0.00  0.00    +0.000 A 
ATOM     10  C   UNL     1      28.310  -0.318  53.709  0.00  0.00    +0.000 A 
ATOM     11  F   UNL     1      29.388  -0.965  54.171  0.00  0.00    +0.000 F 
ATOM     12  C   UNL     1      27.554  -0.889  52.695  0.00  0.00    +0.000 A 
ATOM     13  C   UNL     1      26.432  -0.214  52.211  0.00  0.00    +0.000 A 
ENDBRANCH   3   7
BRANCH   4  14
ATOM     14  C   UNL     1      22.887   0.337  53.350  0.00  0.00    +0.000 A 
ATOM     15  C   UNL     1      23.647  -0.536  54.125  0.00  0.00    +0.000 A 
ATOM     16  C   UNL     1      22.987  -1.489  54.877  0.00  0.00    +0.000 A 
ATOM     17  N   UNL     1      21.650  -1.640  54.890  0.00  0.00    +0.000 NA
ATOM     18  C   UNL     1      20.897  -0.817  54.130  0.00  0.00    +0.000 A 
ATOM     19  C   UNL     1      21.488   0.197  53.375  0.00  0.00    +0.000 A 
BRANCH  18  20
ATOM     20  N   UNL     1      19.486  -0.949  54.156  0.00  0.00    +0.000 N 
ATOM     21  H   UNL     1      19.052  -1.158  55.015  0.00  0.00    +0.000 HD
BRANCH  20  22
ATOM     22  C   UNL     1      18.659  -0.795  53.007  0.00  0.00    +0.000 A 
ATOM     23  C   UNL     1      17.389  -1.382  52.987  0.00  0.00    +0.000 A 
ATOM     24  C   UNL     1      16.535  -1.194  51.894  0.00  0.00    +0.000 A 
ATOM     25  C   UNL     1      16.928  -0.388  50.824  0.00  0.00    +0.000 A 
ATOM     26  C   UNL     1      18.176   0.230  50.850  0.00  0.00    +0.000 A 
ATOM     27  C   UNL     1      19.024   0.039  51.939  0.00  0.00    +0.000 A 
ENDBRANCH  20  22
ENDBRANCH  18  20
ENDBRANCH   4  14
BRANCH   1  28
ATOM     28  S   UNL     1      23.116   4.534  50.332  0.00  0.00    +0.000 S 
BRANCH  28  29
ATOM     29  C   UNL     1      24.534   4.893  49.225  0.00  0.00    +0.000 C 
BRANCH  29  36
ATOM     30  C   UNL     1      27.769   5.441  48.617  0.00  0.00    +0.000 C 
ATOM     31  O   UNL     1      27.787   4.247  48.910  0.00  0.00    +0.000 OA
ATOM     32  N   UNL     1      26.679   6.252  48.878  0.00  0.00    +0.000 N 
ATOM     33  C   UNL     1      26.606   7.701  48.762  0.00  0.00    +0.000 C 
ATOM     34  C   UNL     1      26.165   8.130  50.148  0.00  0.00    +0.000 C 
ATOM     35  C   UNL     1      25.157   7.051  50.537  0.00  0.00    +0.000 C 
ATOM     36  C   UNL     1      25.656   5.777  49.827  0.00  0.00    +0.000 C 
BRANCH  30  38
ATOM     37  C   UNL     1      30.124   5.400  47.917  0.00  0.00    +0.000 C 
ATOM     38  C   UNL     1      28.981   6.090  48.042  0.00  0.00    +0.000 C 
ENDBRANCH  30  38
ENDBRANCH  29  36
ENDBRANCH  28  29
ENDBRANCH   1  28
TORSDOF 8
ENDMDL
MODEL 3
REMARK VINA RESULT:    -9.836      2.819      7.406
REMARK INTER + INTRA:         -15.766
REMARK INTER:                 -14.542
REMARK INTRA:                  -1.224
REMARK UNBOUND:                -1.330
REMARK  Name = 
REMARK  8 active torsions:
REMARK  status: ('A' for Active; 'I' for Inactive)
REMARK    1  A    between atoms: C_2  and  C_3
REMARK    2  A    between atoms: C_9  and  C_10
REMARK    3  A    between atoms: C_10  and  S_11
REMARK    4  A    between atoms: S_11  and  C_12
REMARK    5  A    between atoms: C_14  and  C_15
REMARK    6  A    between atoms: C_22  and  C_23
REMARK    7  A    between atoms: C_27  and  N_28
REMARK    8  A    between atoms: N_28  and  C_29
REMARK                            x       y       z     vdW  Elec       q    Type
REMARK                         _______ _______ _______ _____ _____    ______ ____
ROOT
ATOM      1  C   UNL     1      23.722   3.742  52.132  0.00  0.00    +0.000 A 
ATOM      2  N   UNL     1      24.938   3.283  52.281  0.00  0.00    +0.000 NA
ATOM      3  C   UNL     1      24.781   1.992  52.760  0.00  0.00    +0.000 A 
ATOM      4  C   UNL     1      23.437   1.692  52.977  0.00  0.00    +0.000 A 
ATOM      5  N   UNL     1      22.787   2.820  52.503  0.00  0.00    +0.000 N 
ATOM      6  H   UNL     1      21.812   2.937  52.445  0.00  0.00    +0.000 HD
ENDROOT
BRANCH   3   7
ATOM      7  C   UNL     1      25.916   1.111  52.994  0.00  0.00    +0.000 A 
ATOM      8  C   UNL     1      26.875   1.457  53.957  0.00  0.00    +0.000 A 
ATOM      9  C   UNL     1      27.963   0.613  54.206  0.00  0.00    +0.000 A 
ATOM     10  C   UNL     1      28.091  -0.573  53.492  0.00  0.00    +0.000 A 
ATOM     11  F   UNL     1      29.127  -1.385  53.738  0.00  0.00    +0.000 F 
ATOM     12  C   UNL     1      27.162  -0.925  52.523  0.00  0.00    +0.000 A 
ATOM     13  C   UNL     1      26.083  -0.076  52.264  0.00  0.00    +0.000 A 
ENDBRANCH   3   7
BRANCH   4  14
ATOM     14  C   UNL     1      22.730   0.552  53.575  0.00  0.00    +0.000 A 
ATOM     15  C   UNL     1      23.430  -0.435  54.264  0.00  0.00    +0.000 A 
ATOM     16  C   UNL     1      22.718  -1.490  54.803  0.00  0.00    +0.000 A 
ATOM     17  N   UNL     1      21.385  -1.632  54.684  0.00  0.00    +0.000 NA
ATOM     18  C   UNL     1      20.691  -0.697  54.003  0.00  0.00    +0.000 A 
ATOM     19  C   UNL     1      21.335   0.419  53.464  0.00  0.00    +0.000 A 
BRANCH  18  20
ATOM     20  N   UNL     1      19.283  -0.822  53.893  0.00  0.00    +0.000 N 
ATOM     21  H   UNL     1      18.769  -1.030  54.706  0.00  0.00    +0.000 HD
BRANCH  20  22
ATOM     22  C   UNL     1      18.571  -0.661  52.671  0.00  0.00    +0.000 A 
ATOM     23  C   UNL     1      17.267  -1.155  52.563  0.00  0.00    +0.000 A 
ATOM     24  C   UNL     1      16.524  -0.957  51.391  0.00  0.00    +0.000 A 
ATOM     25  C   UNL     1      17.067  -0.230  50.330  0.00  0.00    +0.000 A 
ATOM     26  C   UNL     1      18.352   0.298  50.441  0.00  0.00    +0.000 A 
ATOM     27  C   UNL     1      19.087   0.096  51.608  0.00  0.00    +0.000 A 
ENDBRANCH  20  22
ENDBRANCH  18  20
ENDBRANCH   4  14
BRANCH   1  28
ATOM     28  S   UNL     1      23.219   5.306  51.590  0.00  0.00    +0.000 S 
BRANCH  28  29
ATOM     29  C   UNL     1      24.472   5.679  50.304  0.00  0.00    +0.000 C 
BRANCH  29  36
ATOM     30  C   UNL     1      23.283   3.027  48.664  0.00  0.00    +0.000 C 
ATOM     31  O   UNL     1      24.369   2.595  49.047  0.00  0.00    +0.000 OA
ATOM     32  N   UNL     1      22.972   4.375  48.687  0.00  0.00    +0.000 N 
ATOM     33  C   UNL     1      21.816   5.027  48.089  0.00  0.00    +0.000 C 
ATOM     34  C   UNL     1      22.445   6.070  47.186  0.00  0.00    +0.000 C 
ATOM     35  C   UNL     1      23.628   6.571  48.012  0.00  0.00    +0.000 C 
ATOM     36  C   UNL     1      24.066   5.350  48.846  0.00  0.00    +0.000 C 
BRANCH  30  38
ATOM     37  C   UNL     1      21.520   1.326  48.848  0.00  0.00    +0.000 C 
ATOM     38  C   UNL     1      22.280   2.104  48.063  0.00  0.00    +0.000 C 
ENDBRANCH  30  38
ENDBRANCH  29  36
ENDBRANCH  28  29
ENDBRANCH   1  28
TORSDOF 8
ENDMDL
MODEL 4
REMARK VINA RESULT:    -9.793      1.651      2.763
REMARK INTER + INTRA:         -15.704
REMARK INTER:                 -14.138
REMARK INTRA:                  -1.566
REMARK UNBOUND:                -1.330
REMARK  Name = 
REMARK  8 active torsions:
REMARK  status: ('A' for Active; 'I' for Inactive)
REMARK    1  A    between atoms: C_2  and  C_3
REMARK    2  A    between atoms: C_9  and  C_10
REMARK    3  A    between atoms: C_10  and  S_11
REMARK    4  A    between atoms: S_11  and  C_12
REMARK    5  A    between atoms: C_14  and  C_15
REMARK    6  A    between atoms: C_22  and  C_23
REMARK    7  A    between atoms: C_27  and  N_28
REMARK    8  A    between atoms: N_28  and  C_29
REMARK                            x       y       z     vdW  Elec       q    Type
REMARK                         _______ _______ _______ _____ _____    ______ ____
ROOT
ATOM      1  C   UNL     1      23.037  -0.427  53.876  0.00  0.00    +0.000 A 
ATOM      2  N   UNL     1      24.268  -0.845  54.023  0.00  0.00    +0.000 NA
ATOM      3  C   UNL     1      25.057   0.154  53.475  0.00  0.00    +0.000 A 
ATOM      4  C   UNL     1      24.277   1.166  52.914  0.00  0.00    +0.000 A 
ATOM      5  N   UNL     1      22.988   0.783  53.248  0.00  0.00    +0.000 N 
ATOM      6  H   UNL     1      22.171   1.300  53.062  0.00  0.00    +0.000 HD
ENDROOT
BRANCH   3   7
ATOM      7  C   UNL     1      26.511   0.094  53.504  0.00  0.00    +0.000 A 
ATOM      8  C   UNL     1      27.166  -1.080  53.107  0.00  0.00    +0.000 A 
ATOM      9  C   UNL     1      28.563  -1.148  53.113  0.00  0.00    +0.000 A 
ATOM     10  C   UNL     1      29.303  -0.043  53.518  0.00  0.00    +0.000 A 
ATOM     11  F   UNL     1      30.640  -0.105  53.513  0.00  0.00    +0.000 F 
ATOM     12  C   UNL     1      28.674   1.123  53.930  0.00  0.00    +0.000 A 
ATOM     13  C   UNL     1      27.279   1.187  53.938  0.00  0.00    +0.000 A 
ENDBRANCH   3   7
BRANCH   4  14
ATOM     14  C   UNL     1      24.578   2.361  52.117  0.00  0.00    +0.000 A 
ATOM     15  C   UNL     1      25.407   2.281  51.001  0.00  0.00    +0.000 A 
ATOM     16  C   UNL     1      25.662   3.438  50.289  0.00  0.00    +0.000 A 
ATOM     17  N   UNL     1      25.172   4.646  50.622  0.00  0.00    +0.000 NA
ATOM     18  C   UNL     1      24.383   4.748  51.712  0.00  0.00    +0.000 A 
ATOM     19  C   UNL     1      24.047   3.618  52.459  0.00  0.00    +0.000 A 
BRANCH  18  20
ATOM     20  N   UNL     1      23.840   6.011  52.058  0.00  0.00    +0.000 N 
ATOM     21  H   UNL     1      24.032   6.372  52.954  0.00  0.00    +0.000 HD
BRANCH  20  22
ATOM     22  C   UNL     1      23.031   6.789  51.182  0.00  0.00    +0.000 A 
ATOM     23  C   UNL     1      23.610   7.832  50.451  0.00  0.00    +0.000 A 
ATOM     24  C   UNL     1      22.848   8.571  49.539  0.00  0.00    +0.000 A 
ATOM     25  C   UNL     1      21.507   8.251  49.321  0.00  0.00    +0.000 A 
ATOM     26  C   UNL     1      20.929   7.192  50.017  0.00  0.00    +0.000 A 
ATOM     27  C   UNL     1      21.691   6.459  50.926  0.00  0.00    +0.000 A 
ENDBRANCH  20  22
ENDBRANCH  18  20
ENDBRANCH   4  14
BRANCH   1  28
ATOM     28  S   UNL     1      21.568  -1.221  54.328  0.00  0.00    +0.000 S 
BRANCH  28  29
ATOM     29  C   UNL     1      20.303  -0.016  53.769  0.00  0.00    +0.000 C 
BRANCH  29  36
ATOM     30  C   UNL     1      17.336  -1.254  52.872  0.00  0.00    +0.000 C 
ATOM     31  O   UNL     1      17.799  -2.199  53.510  0.00  0.00    +0.000 OA
ATOM     32  N   UNL     1      18.118  -0.197  52.442  0.00  0.00    +0.000 N 
ATOM     33  C   UNL     1      17.739   0.868  51.525  0.00  0.00    +0.000 C 
ATOM     34  C   UNL     1      18.793   0.772  50.440  0.00  0.00    +0.000 C 
ATOM     35  C   UNL     1      20.066   0.459  51.223  0.00  0.00    +0.000 C 
ATOM     36  C   UNL     1      19.583  -0.357  52.440  0.00  0.00    +0.000 C 
BRANCH  30  38
ATOM     37  C   UNL     1      15.503  -2.035  51.435  0.00  0.00    +0.000 C 
ATOM     38  C   UNL     1      15.907  -1.262  52.454  0.00  0.00    +0.000 C 
ENDBRANCH  30  38
ENDBRANCH  29  36
ENDBRANCH  28  29
ENDBRANCH   1  28
TORSDOF 8
ENDMDL
MODEL 5
REMARK VINA RESULT:    -9.762      3.920      7.746
REMARK INTER + INTRA:         -15.657
REMARK INTER:                 -14.089
REMARK INTRA:                  -1.569
REMARK UNBOUND:                -1.330
REMARK  Name = 
REMARK  8 active torsions:
REMARK  status: ('A' for Active; 'I' for Inactive)
REMARK    1  A    between atoms: C_2  and  C_3
REMARK    2  A    between atoms: C_9  and  C_10
REMARK    3  A    between atoms: C_10  and  S_11
REMARK    4  A    between atoms: S_11  and  C_12
REMARK    5  A    between atoms: C_14  and  C_15
REMARK    6  A    between atoms: C_22  and  C_23
REMARK    7  A    between atoms: C_27  and  N_28
REMARK    8  A    between atoms: N_28  and  C_29
REMARK                            x       y       z     vdW  Elec       q    Type
REMARK                         _______ _______ _______ _____ _____    ______ ____
ROOT
ATOM      1  C   UNL     1      20.717   3.921  51.032  0.00  0.00    +0.000 A 
ATOM      2  N   UNL     1      20.461   2.804  51.661  0.00  0.00    +0.000 NA
ATOM      3  C   UNL     1      21.700   2.296  52.018  0.00  0.00    +0.000 A 
ATOM      4  C   UNL     1      22.734   3.091  51.525  0.00  0.00    +0.000 A 
ATOM      5  N   UNL     1      22.059   4.157  50.951  0.00  0.00    +0.000 N 
ATOM      6  H   UNL     1      22.479   4.952  50.550  0.00  0.00    +0.000 HD
ENDROOT
BRANCH   3   7
ATOM      7  C   UNL     1      21.840   1.079  52.803  0.00  0.00    +0.000 A 
ATOM      8  C   UNL     1      21.012   0.870  53.915  0.00  0.00    +0.000 A 
ATOM      9  C   UNL     1      21.123  -0.303  54.669  0.00  0.00    +0.000 A 
ATOM     10  C   UNL     1      22.063  -1.263  54.312  0.00  0.00    +0.000 A 
ATOM     11  F   UNL     1      22.162  -2.390  55.029  0.00  0.00    +0.000 F 
ATOM     12  C   UNL     1      22.904  -1.069  53.226  0.00  0.00    +0.000 A 
ATOM     13  C   UNL     1      22.803   0.108  52.481  0.00  0.00    +0.000 A 
ENDBRANCH   3   7
BRANCH   4  14
ATOM     14  C   UNL     1      24.196   2.961  51.498  0.00  0.00    +0.000 A 
ATOM     15  C   UNL     1      24.925   3.361  50.380  0.00  0.00    +0.000 A 
ATOM     16  C   UNL     1      26.298   3.212  50.404  0.00  0.00    +0.000 A 
ATOM     17  N   UNL     1      26.976   2.682  51.439  0.00  0.00    +0.000 NA
ATOM     18  C   UNL     1      26.287   2.270  52.523  0.00  0.00    +0.000 A 
ATOM     19  C   UNL     1      24.901   2.425  52.590  0.00  0.00    +0.000 A 
BRANCH  18  20
ATOM     20  N   UNL     1      26.993   1.734  53.630  0.00  0.00    +0.000 N 
ATOM     21  H   UNL     1      26.950   2.216  54.488  0.00  0.00    +0.000 HD
BRANCH  20  22
ATOM     22  C   UNL     1      27.760   0.537  53.571  0.00  0.00    +0.000 A 
ATOM     23  C   UNL     1      27.170  -0.639  53.098  0.00  0.00    +0.000 A 
ATOM     24  C   UNL     1      27.921  -1.815  52.974  0.00  0.00    +0.000 A 
ATOM     25  C   UNL     1      29.281  -1.815  53.290  0.00  0.00    +0.000 A 
ATOM     26  C   UNL     1      29.888  -0.641  53.728  0.00  0.00    +0.000 A 
ATOM     27  C   UNL     1      29.136   0.526  53.852  0.00  0.00    +0.000 A 
ENDBRANCH  20  22
ENDBRANCH  18  20
ENDBRANCH   4  14
BRANCH   1  28
ATOM     28  S   UNL     1      19.605   5.030  50.307  0.00  0.00    +0.000 S 
BRANCH  28  29
ATOM     29  C   UNL     1      20.723   6.079  49.300  0.00  0.00    +0.000 C 
BRANCH  29  36
ATOM     30  C   UNL     1      23.541   7.581  50.271  0.00  0.00    +0.000 C 
ATOM     31  O   UNL     1      23.519   6.614  51.031  0.00  0.00    +0.000 OA
ATOM     32  N   UNL     1      22.435   7.971  49.537  0.00  0.00    +0.000 N 
ATOM     33  C   UNL     1      22.272   9.194  48.764  0.00  0.00    +0.000 C 
ATOM     34  C   UNL     1      21.019   9.806  49.358  0.00  0.00    +0.000 C 
ATOM     35  C   UNL     1      20.128   8.592  49.609  0.00  0.00    +0.000 C 
ATOM     36  C   UNL     1      21.112   7.445  49.919  0.00  0.00    +0.000 C 
BRANCH  30  38
ATOM     37  C   UNL     1      25.978   7.884  50.209  0.00  0.00    +0.000 C 
ATOM     38  C   UNL     1      24.757   8.437  50.182  0.00  0.00    +0.000 C 
ENDBRANCH  30  38
ENDBRANCH  29  36
ENDBRANCH  28  29
ENDBRANCH   1  28
TORSDOF 8
ENDMDL
MODEL 6
REMARK VINA RESULT:    -9.756      2.285      3.594
REMARK INTER + INTRA:         -15.649
REMARK INTER:                 -13.244
REMARK INTRA:                  -2.405
REMARK UNBOUND:                -1.330
REMARK  Name = 
REMARK  8 active torsions:
REMARK  status: ('A' for Active; 'I' for Inactive)
REMARK    1  A    between atoms: C_2  and  C_3
REMARK    2  A    between atoms: C_9  and  C_10
REMARK    3  A    between atoms: C_10  and  S_11
REMARK    4  A    between atoms: S_11  and  C_12
REMARK    5  A    between atoms: C_14  and  C_15
REMARK    6  A    between atoms: C_22  and  C_23
REMARK    7  A    between atoms: C_27  and  N_28
REMARK    8  A    between atoms: N_28  and  C_29
REMARK                            x       y       z     vdW  Elec       q    Type
REMARK                         _______ _______ _______ _____ _____    ______ ____
ROOT
ATOM      1  C   UNL     1      23.275  -0.463  53.488  0.00  0.00    +0.000 A 
ATOM      2  N   UNL     1      24.475  -0.917  53.746  0.00  0.00    +0.000 NA
ATOM      3  C   UNL     1      25.341   0.035  53.234  0.00  0.00    +0.000 A 
ATOM      4  C   UNL     1      24.646   1.053  52.581  0.00  0.00    +0.000 A 
ATOM      5  N   UNL     1      23.321   0.727  52.821  0.00  0.00    +0.000 N 
ATOM      6  H   UNL     1      22.541   1.265  52.554  0.00  0.00    +0.000 HD
ENDROOT
BRANCH   3   7
ATOM      7  C   UNL     1      26.785  -0.073  53.381  0.00  0.00    +0.000 A 
ATOM      8  C   UNL     1      27.506   0.988  53.948  0.00  0.00    +0.000 A 
ATOM      9  C   UNL     1      28.892   0.892  54.112  0.00  0.00    +0.000 A 
ATOM     10  C   UNL     1      29.554  -0.261  53.708  0.00  0.00    +0.000 A 
ATOM     11  F   UNL     1      30.880  -0.355  53.875  0.00  0.00    +0.000 F 
ATOM     12  C   UNL     1      28.862  -1.316  53.130  0.00  0.00    +0.000 A 
ATOM     13  C   UNL     1      27.480  -1.216  52.953  0.00  0.00    +0.000 A 
ENDBRANCH   3   7
BRANCH   4  14
ATOM     14  C   UNL     1      25.053   2.211  51.775  0.00  0.00    +0.000 A 
ATOM     15  C   UNL     1      26.089   2.104  50.851  0.00  0.00    +0.000 A 
ATOM     16  C   UNL     1      26.436   3.226  50.121  0.00  0.00    +0.000 A 
ATOM     17  N   UNL     1      25.844   4.426  50.266  0.00  0.00    +0.000 NA
ATOM     18  C   UNL     1      24.852   4.555  51.170  0.00  0.00    +0.000 A 
ATOM     19  C   UNL     1      24.418   3.457  51.916  0.00  0.00    +0.000 A 
BRANCH  18  20
ATOM     20  N   UNL     1      24.203   5.807  51.312  0.00  0.00    +0.000 N 
ATOM     21  H   UNL     1      24.466   6.386  52.064  0.00  0.00    +0.000 HD
BRANCH  20  22
ATOM     22  C   UNL     1      23.190   6.276  50.429  0.00  0.00    +0.000 A 
ATOM     23  C   UNL     1      23.052   5.692  49.165  0.00  0.00    +0.000 A 
ATOM     24  C   UNL     1      22.026   6.095  48.302  0.00  0.00    +0.000 A 
ATOM     25  C   UNL     1      21.104   7.061  48.709  0.00  0.00    +0.000 A 
ATOM     26  C   UNL     1      21.210   7.623  49.979  0.00  0.00    +0.000 A 
ATOM     27  C   UNL     1      22.234   7.221  50.834  0.00  0.00    +0.000 A 
ENDBRANCH  20  22
ENDBRANCH  18  20
ENDBRANCH   4  14
BRANCH   1  28
ATOM     28  S   UNL     1      21.747  -1.191  53.844  0.00  0.00    +0.000 S 
BRANCH  28  29
ATOM     29  C   UNL     1      20.729   0.271  54.282  0.00  0.00    +0.000 C 
BRANCH  29  36
ATOM     30  C   UNL     1      20.321   2.708  52.039  0.00  0.00    +0.000 C 
ATOM     31  O   UNL     1      20.363   3.357  53.083  0.00  0.00    +0.000 OA
ATOM     32  N   UNL     1      20.141   1.337  52.027  0.00  0.00    +0.000 N 
ATOM     33  C   UNL     1      19.880   0.488  50.873  0.00  0.00    +0.000 C 
ATOM     34  C   UNL     1      18.591  -0.213  51.252  0.00  0.00    +0.000 C 
ATOM     35  C   UNL     1      18.775  -0.489  52.742  0.00  0.00    +0.000 C 
ATOM     36  C   UNL     1      19.648   0.678  53.249  0.00  0.00    +0.000 C 
BRANCH  30  38
ATOM     37  C   UNL     1      19.447   4.319  50.404  0.00  0.00    +0.000 C 
ATOM     38  C   UNL     1      20.372   3.403  50.722  0.00  0.00    +0.000 C 
ENDBRANCH  30  38
ENDBRANCH  29  36
ENDBRANCH  28  29
ENDBRANCH   1  28
TORSDOF 8
ENDMDL
MODEL 7
REMARK VINA RESULT:    -9.755      3.088      6.520
REMARK INTER + INTRA:         -15.647
REMARK INTER:                 -13.491
REMARK INTRA:                  -2.157
REMARK UNBOUND:                -1.330
REMARK  Name = 
REMARK  8 active torsions:
REMARK  status: ('A' for Active; 'I' for Inactive)
REMARK    1  A    between atoms: C_2  and  C_3
REMARK    2  A    between atoms: C_9  and  C_10
REMARK    3  A    between atoms: C_10  and  S_11
REMARK    4  A    between atoms: S_11  and  C_12
REMARK    5  A    between atoms: C_14  and  C_15
REMARK    6  A    between atoms: C_22  and  C_23
REMARK    7  A    between atoms: C_27  and  N_28
REMARK    8  A    between atoms: N_28  and  C_29
REMARK                            x       y       z     vdW  Elec       q    Type
REMARK                         _______ _______ _______ _____ _____    ______ ____
ROOT
ATOM      1  C   UNL     1      20.841   3.710  51.506  0.00  0.00    +0.000 A 
ATOM      2  N   UNL     1      21.099   4.908  51.049  0.00  0.00    +0.000 NA
ATOM      3  C   UNL     1      22.470   4.931  50.846  0.00  0.00    +0.000 A 
ATOM      4  C   UNL     1      23.064   3.740  51.264  0.00  0.00    +0.000 A 
ATOM      5  N   UNL     1      21.976   2.961  51.623  0.00  0.00    +0.000 N 
ATOM      6  H   UNL     1      22.016   2.022  51.915  0.00  0.00    +0.000 HD
ENDROOT
BRANCH   3   7
ATOM      7  C   UNL     1      23.148   6.085  50.274  0.00  0.00    +0.000 A 
ATOM      8  C   UNL     1      23.200   6.239  48.881  0.00  0.00    +0.000 A 
ATOM      9  C   UNL     1      23.833   7.351  48.316  0.00  0.00    +0.000 A 
ATOM     10  C   UNL     1      24.415   8.305  49.144  0.00  0.00    +0.000 A 
ATOM     11  F   UNL     1      25.012   9.374  48.602  0.00  0.00    +0.000 F 
ATOM     12  C   UNL     1      24.390   8.162  50.523  0.00  0.00    +0.000 A 
ATOM     13  C   UNL     1      23.769   7.046  51.088  0.00  0.00    +0.000 A 
ENDBRANCH   3   7
BRANCH   4  14
ATOM     14  C   UNL     1      24.454   3.285  51.392  0.00  0.00    +0.000 A 
ATOM     15  C   UNL     1      25.397   3.597  50.417  0.00  0.00    +0.000 A 
ATOM     16  C   UNL     1      26.690   3.139  50.584  0.00  0.00    +0.000 A 
ATOM     17  N   UNL     1      27.090   2.387  51.626  0.00  0.00    +0.000 NA
ATOM     18  C   UNL     1      26.187   2.057  52.572  0.00  0.00    +0.000 A 
ATOM     19  C   UNL     1      24.870   2.516  52.494  0.00  0.00    +0.000 A 
BRANCH  18  20
ATOM     20  N   UNL     1      26.602   1.288  53.688  0.00  0.00    +0.000 N 
ATOM     21  H   UNL     1      26.278   1.549  54.580  0.00  0.00    +0.000 HD
BRANCH  20  22
ATOM     22  C   UNL     1      27.461   0.157  53.591  0.00  0.00    +0.000 A 
ATOM     23  C   UNL     1      26.988  -1.021  53.005  0.00  0.00    +0.000 A 
ATOM     24  C   UNL     1      27.833  -2.127  52.844  0.00  0.00    +0.000 A 
ATOM     25  C   UNL     1      29.171  -2.051  53.236  0.00  0.00    +0.000 A 
ATOM     26  C   UNL     1      29.662  -0.870  53.788  0.00  0.00    +0.000 A 
ATOM     27  C   UNL     1      28.817   0.226  53.948  0.00  0.00    +0.000 A 
ENDBRANCH  20  22
ENDBRANCH  18  20
ENDBRANCH   4  14
BRANCH   1  28
ATOM     28  S   UNL     1      19.318   3.042  51.983  0.00  0.00    +0.000 S 
BRANCH  28  29
ATOM     29  C   UNL     1      19.065   1.742  50.714  0.00  0.00    +0.000 C 
BRANCH  29  36
ATOM     30  C   UNL     1      21.319  -0.113  52.331  0.00  0.00    +0.000 C 
ATOM     31  O   UNL     1      21.940   0.166  51.307  0.00  0.00    +0.000 OA
ATOM     32  N   UNL     1      19.952   0.071  52.442  0.00  0.00    +0.000 N 
ATOM     33  C   UNL     1      19.080  -0.395  53.511  0.00  0.00    +0.000 C 
ATOM     34  C   UNL     1      18.040  -1.210  52.768  0.00  0.00    +0.000 C 
ATOM     35  C   UNL     1      17.807  -0.395  51.498  0.00  0.00    +0.000 C 
ATOM     36  C   UNL     1      19.165   0.279  51.214  0.00  0.00    +0.000 C 
BRANCH  30  38
ATOM     37  C   UNL     1      23.349  -0.663  53.601  0.00  0.00    +0.000 C 
ATOM     38  C   UNL     1      22.017  -0.759  53.478  0.00  0.00    +0.000 C 
ENDBRANCH  30  38
ENDBRANCH  29  36
ENDBRANCH  28  29
ENDBRANCH   1  28
TORSDOF 8
ENDMDL
MODEL 8
REMARK VINA RESULT:    -9.714      1.898      2.782
REMARK INTER + INTRA:         -15.587
REMARK INTER:                 -14.229
REMARK INTRA:                  -1.358
REMARK UNBOUND:                -1.330
REMARK  Name = 
REMARK  8 active torsions:
REMARK  status: ('A' for Active; 'I' for Inactive)
REMARK    1  A    between atoms: C_2  and  C_3
REMARK    2  A    between atoms: C_9  and  C_10
REMARK    3  A    between atoms: C_10  and  S_11
REMARK    4  A    between atoms: S_11  and  C_12
REMARK    5  A    between atoms: C_14  and  C_15
REMARK    6  A    between atoms: C_22  and  C_23
REMARK    7  A    between atoms: C_27  and  N_28
REMARK    8  A    between atoms: N_28  and  C_29
REMARK                            x       y       z     vdW  Elec       q    Type
REMARK                         _______ _______ _______ _____ _____    ______ ____
ROOT
ATOM      1  C   UNL     1      23.228  -0.284  53.903  0.00  0.00    +0.000 A 
ATOM      2  N   UNL     1      24.416  -0.773  54.151  0.00  0.00    +0.000 NA
ATOM      3  C   UNL     1      25.294   0.028  53.438  0.00  0.00    +0.000 A 
ATOM      4  C   UNL     1      24.610   0.978  52.678  0.00  0.00    +0.000 A 
ATOM      5  N   UNL     1      23.291   0.783  53.054  0.00  0.00    +0.000 N 
ATOM      6  H   UNL     1      22.525   1.325  52.757  0.00  0.00    +0.000 HD
ENDROOT
BRANCH   3   7
ATOM      7  C   UNL     1      26.736  -0.154  53.505  0.00  0.00    +0.000 A 
ATOM      8  C   UNL     1      27.314  -1.322  52.988  0.00  0.00    +0.000 A 
ATOM      9  C   UNL     1      28.700  -1.505  53.030  0.00  0.00    +0.000 A 
ATOM     10  C   UNL     1      29.506  -0.521  53.592  0.00  0.00    +0.000 A 
ATOM     11  F   UNL     1      30.834  -0.692  53.623  0.00  0.00    +0.000 F 
ATOM     12  C   UNL     1      28.953   0.635  54.124  0.00  0.00    +0.000 A 
ATOM     13  C   UNL     1      27.568   0.812  54.095  0.00  0.00    +0.000 A 
ENDBRANCH   3   7
BRANCH   4  14
ATOM     14  C   UNL     1      25.020   1.967  51.674  0.00  0.00    +0.000 A 
ATOM     15  C   UNL     1      26.342   2.035  51.241  0.00  0.00    +0.000 A 
ATOM     16  C   UNL     1      26.675   2.987  50.297  0.00  0.00    +0.000 A 
ATOM     17  N   UNL     1      25.801   3.872  49.784  0.00  0.00    +0.000 NA
ATOM     18  C   UNL     1      24.519   3.836  50.205  0.00  0.00    +0.000 A 
ATOM     19  C   UNL     1      24.097   2.875  51.126  0.00  0.00    +0.000 A 
BRANCH  18  20
ATOM     20  N   UNL     1      23.582   4.745  49.652  0.00  0.00    +0.000 N 
ATOM     21  H   UNL     1      23.359   5.554  50.165  0.00  0.00    +0.000 HD
BRANCH  20  22
ATOM     22  C   UNL     1      22.946   4.553  48.393  0.00  0.00    +0.000 A 
ATOM     23  C   UNL     1      22.782   5.640  47.529  0.00  0.00    +0.000 A 
ATOM     24  C   UNL     1      22.213   5.464  46.262  0.00  0.00    +0.000 A 
ATOM     25  C   UNL     1      21.834   4.191  45.832  0.00  0.00    +0.000 A 
ATOM     26  C   UNL     1      22.025   3.095  46.671  0.00  0.00    +0.000 A 
ATOM     27  C   UNL     1      22.590   3.275  47.932  0.00  0.00    +0.000 A 
ENDBRANCH  20  22
ENDBRANCH  18  20
ENDBRANCH   4  14
BRANCH   1  28
ATOM     28  S   UNL     1      21.693  -0.842  54.470  0.00  0.00    +0.000 S 
BRANCH  28  29
ATOM     29  C   UNL     1      20.544   0.347  53.675  0.00  0.00    +0.000 C 
BRANCH  29  36
ATOM     30  C   UNL     1      17.607  -1.059  52.942  0.00  0.00    +0.000 C 
ATOM     31  O   UNL     1      18.098  -1.915  53.675  0.00  0.00    +0.000 OA
ATOM     32  N   UNL     1      18.358  -0.035  52.393  0.00  0.00    +0.000 N 
ATOM     33  C   UNL     1      17.946   0.914  51.368  0.00  0.00    +0.000 C 
ATOM     34  C   UNL     1      18.996   0.727  50.292  0.00  0.00    +0.000 C 
ATOM     35  C   UNL     1      20.282   0.535  51.094  0.00  0.00    +0.000 C 
ATOM     36  C   UNL     1      19.827  -0.156  52.396  0.00  0.00    +0.000 C 
BRANCH  30  38
ATOM     37  C   UNL     1      15.654  -2.322  52.150  0.00  0.00    +0.000 C 
ATOM     38  C   UNL     1      16.176  -1.149  52.538  0.00  0.00    +0.000 C 
ENDBRANCH  30  38
ENDBRANCH  29  36
ENDBRANCH  28  29
ENDBRANCH   1  28
TORSDOF 8
ENDMDL
MODEL 9
REMARK VINA RESULT:    -9.674      3.546      8.018
REMARK INTER + INTRA:         -15.528
REMARK INTER:                 -14.234
REMARK INTRA:                  -1.294
REMARK UNBOUND:                -1.330
REMARK  Name = 
REMARK  8 active torsions:
REMARK  status: ('A' for Active; 'I' for Inactive)
REMARK    1  A    between atoms: C_2  and  C_3
REMARK    2  A    between atoms: C_9  and  C_10
REMARK    3  A    between atoms: C_10  and  S_11
REMARK    4  A    between atoms: S_11  and  C_12
REMARK    5  A    between atoms: C_14  and  C_15
REMARK    6  A    between atoms: C_22  and  C_23
REMARK    7  A    between atoms: C_27  and  N_28
REMARK    8  A    between atoms: N_28  and  C_29
REMARK                            x       y       z     vdW  Elec       q    Type
REMARK                         _______ _______ _______ _____ _____    ______ ____
ROOT
ATOM      1  C   UNL     1      20.536   3.489  51.317  0.00  0.00    +0.000 A 
ATOM      2  N   UNL     1      19.538   2.643  51.326  0.00  0.00    +0.000 NA
ATOM      3  C   UNL     1      19.999   1.546  52.035  0.00  0.00    +0.000 A 
ATOM      4  C   UNL     1      21.337   1.702  52.398  0.00  0.00    +0.000 A 
ATOM      5  N   UNL     1      21.624   2.989  51.972  0.00  0.00    +0.000 N 
ATOM      6  H   UNL     1      22.474   3.463  52.117  0.00  0.00    +0.000 HD
ENDROOT
BRANCH   3   7
ATOM      7  C   UNL     1      19.150   0.400  52.324  0.00  0.00    +0.000 A 
ATOM      8  C   UNL     1      17.989   0.187  51.567  0.00  0.00    +0.000 A 
ATOM      9  C   UNL     1      17.171  -0.919  51.822  0.00  0.00    +0.000 A 
ATOM     10  C   UNL     1      17.513  -1.808  52.835  0.00  0.00    +0.000 A 
ATOM     11  F   UNL     1      16.735  -2.872  53.071  0.00  0.00    +0.000 F 
ATOM     12  C   UNL     1      18.648  -1.607  53.607  0.00  0.00    +0.000 A 
ATOM     13  C   UNL     1      19.458  -0.495  53.362  0.00  0.00    +0.000 A 
ENDBRANCH   3   7
BRANCH   4  14
ATOM     14  C   UNL     1      22.331   0.826  53.029  0.00  0.00    +0.000 A 
ATOM     15  C   UNL     1      22.027   0.134  54.199  0.00  0.00    +0.000 A 
ATOM     16  C   UNL     1      23.001  -0.673  54.756  0.00  0.00    +0.000 A 
ATOM     17  N   UNL     1      24.238  -0.816  54.245  0.00  0.00    +0.000 NA
ATOM     18  C   UNL     1      24.558  -0.138  53.123  0.00  0.00    +0.000 A 
ATOM     19  C   UNL     1      23.615   0.666  52.480  0.00  0.00    +0.000 A 
BRANCH  18  20
ATOM     20  N   UNL     1      25.850  -0.301  52.561  0.00  0.00    +0.000 N 
ATOM     21  H   UNL     1      25.947  -0.891  51.779  0.00  0.00    +0.000 HD
BRANCH  20  22
ATOM     22  C   UNL     1      27.015   0.343  53.063  0.00  0.00    +0.000 A 
ATOM     23  C   UNL     1      27.160   1.726  52.911  0.00  0.00    +0.000 A 
ATOM     24  C   UNL     1      28.269   2.390  53.450  0.00  0.00    +0.000 A 
ATOM     25  C   UNL     1      29.227   1.681  54.179  0.00  0.00    +0.000 A 
ATOM     26  C   UNL     1      29.074   0.310  54.367  0.00  0.00    +0.000 A 
ATOM     27  C   UNL     1      27.970  -0.347  53.827  0.00  0.00    +0.000 A 
ENDBRANCH  20  22
ENDBRANCH  18  20
ENDBRANCH   4  14
BRANCH   1  28
ATOM     28  S   UNL     1      20.622   5.049  50.575  0.00  0.00    +0.000 S 
BRANCH  28  29
ATOM     29  C   UNL     1      21.916   5.872  51.581  0.00  0.00    +0.000 C 
BRANCH  29  36
ATOM     30  C   UNL     1      24.592   4.120  50.628  0.00  0.00    +0.000 C 
ATOM     31  O   UNL     1      24.644   3.978  51.848  0.00  0.00    +0.000 OA
ATOM     32  N   UNL     1      23.791   5.074  50.027  0.00  0.00    +0.000 N 
ATOM     33  C   UNL     1      23.786   5.470  48.626  0.00  0.00    +0.000 C 
ATOM     34  C   UNL     1      24.029   6.964  48.695  0.00  0.00    +0.000 C 
ATOM     35  C   UNL     1      23.213   7.390  49.913  0.00  0.00    +0.000 C 
ATOM     36  C   UNL     1      23.252   6.168  50.854  0.00  0.00    +0.000 C 
BRANCH  30  38
ATOM     37  C   UNL     1      26.744   3.692  49.523  0.00  0.00    +0.000 C 
ATOM     38  C   UNL     1      25.477   3.313  49.741  0.00  0.00    +0.000 C 
ENDBRANCH  30  38
ENDBRANCH  29  36
ENDBRANCH  28  29
ENDBRANCH   1  28
TORSDOF 8
ENDMDL
