REMARK  Name = 
REMARK  1 active torsions:
REMARK  status: ('A' for Active; 'I' for Inactive)
REMARK    1  A    between atoms: C_9  and  N_10
REMARK                            x       y       z     vdW  Elec       q    Type
REMARK                         _______ _______ _______ _____ _____    ______ ____
ROOT
ATOM      1  N   UNL     1       3.030   2.216   0.062  0.00  0.00    +0.000 N 
ATOM      2  C   UNL     1       3.834   2.657  -1.026  0.00  0.00    +0.000 A 
ATOM      3  N   UNL     1       3.394   2.364  -2.259  0.00  0.00    +0.000 NA
ATOM      4  C   UNL     1       4.244   2.607  -3.257  0.00  0.00    +0.000 A 
ATOM      5  N   UNL     1       5.401   3.267  -3.168  0.00  0.00    +0.000 NA
ATOM      6  C   UNL     1       5.820   3.564  -1.939  0.00  0.00    +0.000 A 
ATOM      7  C   UNL     1       7.102   4.065  -1.820  0.00  0.00    +0.000 A 
ATOM      8  C   UNL     1       7.746   3.958  -0.599  0.00  0.00    +0.000 A 
ATOM      9  C   UNL     1       7.052   3.503   0.525  0.00  0.00    +0.000 A 
ATOM     10  C   UNL     1       5.692   3.306   0.492  0.00  0.00    +0.000 A 
ATOM     11  C   UNL     1       5.092   3.228  -0.784  0.00  0.00    +0.000 A 
ATOM     12  O   UNL     1       7.790   2.861   1.509  0.00  0.00    +0.000 OA
ATOM     13  C   UNL     1       8.659   1.980   0.762  0.00  0.00    +0.000 C 
ATOM     14  C   UNL     1       9.642   2.798  -0.092  0.00  0.00    +0.000 C 
ATOM     15  O   UNL     1       9.109   4.036  -0.594  0.00  0.00    +0.000 OA
ATOM     16  H   UNL     1       2.727   2.860   0.742  0.00  0.00    +0.000 HD
ENDROOT
BRANCH   1  25
ATOM     17  F   UNL     1       4.677   0.065  -0.845  0.00  0.00    +0.000 F 
ATOM     18  C   UNL     1       3.495  -0.215  -0.271  0.00  0.00    +0.000 A 
ATOM     19  C   UNL     1       3.117  -1.549  -0.127  0.00  0.00    +0.000 A 
ATOM     20 BR   UNL     1       4.218  -2.930  -0.799  0.00  0.00    +0.000 Br
ATOM     21  C   UNL     1       1.922  -1.873   0.515  0.00  0.00    +0.000 A 
ATOM     22  C   UNL     1       1.112  -0.850   1.003  0.00  0.00    +0.000 A 
ATOM     23 CL   UNL     1      -0.349  -1.245   1.822  0.00  0.00    +0.000 Cl
ATOM     24  C   UNL     1       1.471   0.493   0.840  0.00  0.00    +0.000 A 
ATOM     25  C   UNL     1       2.658   0.832   0.170  0.00  0.00    +0.000 A 
ENDBRANCH   1  25
TORSDOF 1
