REMARK  Name = 
REMARK  10 active torsions:
REMARK  status: ('A' for Active; 'I' for Inactive)
REMARK    1  A    between atoms: C_1  and  N_2
REMARK    2  A    between atoms: N_2  and  C_3
REMARK    3  A    between atoms: N_2  and  C_4
REMARK    4  A    between atoms: C_4  and  C_5
REMARK    5  A    between atoms: C_5  and  C_6
REMARK    6  A    between atoms: C_6  and  C_8
REMARK    7  A    between atoms: C_11  and  O_12
REMARK    8  A    between atoms: O_12  and  C_13
REMARK    9  A    between atoms: C_13  and  C_14
REMARK   10  A    between atoms: C_20  and  O_21
REMARK                            x       y       z     vdW  Elec       q    Type
REMARK                         _______ _______ _______ _____ _____    ______ ____
ROOT
ATOM      1  C   UNL     1       0.431  -1.500   1.481  0.00  0.00    +0.000 A 
ATOM      2  C   UNL     1       0.197  -0.981   0.201  0.00  0.00    +0.000 A 
ATOM      3  C   UNL     1       0.133  -1.826  -0.926  0.00  0.00    +0.000 A 
ATOM      4  C   UNL     1       0.292  -3.209  -0.791  0.00  0.00    +0.000 A 
ATOM      5  C   UNL     1       0.429  -3.721   0.505  0.00  0.00    +0.000 A 
ATOM      6  C   UNL     1       0.527  -2.884   1.626  0.00  0.00    +0.000 A 
ENDROOT
BRANCH   1   7
ATOM      7  C   UNL     1       0.540  -0.547   2.638  0.00  0.00    +0.000 C 
ATOM      8  O   UNL     1       0.169   0.616   2.479  0.00  0.00    +0.000 OA
BRANCH   7   9
ATOM      9  C   UNL     1       1.188  -0.988   3.945  0.00  0.00    +0.000 C 
BRANCH   9  10
ATOM     10  C   UNL     1       0.448  -0.407   5.157  0.00  0.00    +0.000 C 
BRANCH  10  12
ATOM     11  C   UNL     1       2.326  -0.414   6.711  0.00  0.00    +0.000 C 
ATOM     12  N   UNL     1       0.975  -0.914   6.446  0.00  0.00    +0.000 N 
ATOM     13  C   UNL     1       0.070  -0.550   7.541  0.00  0.00    +0.000 C 
ATOM     14  H   UNL     1       1.031  -1.930   6.384  0.00  0.00    +0.000 HD
ENDBRANCH  10  12
ENDBRANCH   9  10
ENDBRANCH   7   9
ENDBRANCH   1   7
BRANCH   5  15
ATOM     15  O   UNL     1       0.423  -5.060   0.784  0.00  0.00    +0.000 OA
ATOM     16  H   UNL     1       0.360  -5.684   0.088  0.00  0.00    +0.000 HD
ENDBRANCH   5  15
BRANCH   4  17
ATOM     17  O   UNL     1       0.285  -3.915  -1.972  0.00  0.00    +0.000 OA
BRANCH  17  18
ATOM     18  C   UNL     1       0.983  -5.167  -1.963  0.00  0.00    +0.000 C 
BRANCH  18  19
ATOM     19  C   UNL     1       1.412  -5.666  -3.331  0.00  0.00    +0.000 A 
ATOM     20  C   UNL     1       2.572  -6.456  -3.423  0.00  0.00    +0.000 A 
ATOM     21  C   UNL     1       2.933  -7.074  -4.621  0.00  0.00    +0.000 A 
ATOM     22  C   UNL     1       2.133  -6.915  -5.747  0.00  0.00    +0.000 A 
ATOM     23  C   UNL     1       0.984  -6.129  -5.679  0.00  0.00    +0.000 A 
ATOM     24  C   UNL     1       0.619  -5.508  -4.475  0.00  0.00    +0.000 A 
ENDBRANCH  18  19
ENDBRANCH  17  18
ENDBRANCH   4  17
TORSDOF 8
