
     RDKit          3D

 58 61  0  0  0  0  0  0  0  0999 V2000
   -7.1235   -0.3385   -1.0665 C   0  0  0  0  0  0  0  0  0  0  0  0
   -6.4682   -1.5324   -0.5067 N   0  0  0  0  0  0  0  0  0  0  0  0
   -5.5008   -2.0953   -1.4625 C   0  0  0  0  0  0  0  0  0  0  0  0
   -5.8591   -1.2813    0.8190 C   0  0  0  0  0  0  0  0  0  0  0  0
   -4.7139   -0.2941    0.7866 C   0  0  0  0  0  0  0  0  0  0  0  0
   -4.9153    1.0232    0.9131 C   0  0  0  0  0  0  0  0  0  0  0  0
   -3.8177    2.0020    0.8423 C   0  0  0  0  0  0  0  0  0  0  0  0
   -4.0913    3.1928    0.5338 O   0  0  0  0  0  0  0  0  0  0  0  0
   -2.4559    1.6364    1.1274 N   0  0  0  0  0  0  0  0  0  0  0  0
   -1.3888    2.2344    0.3116 C   0  0  0  0  0  0  0  0  0  0  0  0
   -0.1989    1.2733    0.1725 C   0  0  0  0  0  0  0  0  0  0  0  0
    0.1954    0.7001    1.5069 C   0  0  0  0  0  0  0  0  0  0  0  0
   -0.7200    0.6581    2.5608 C   0  0  0  0  0  0  0  0  0  0  0  0
    0.0207    0.0712    3.9572 S   0  0  0  0  0  0  0  0  0  0  0  0
    1.5085   -0.1649    3.2133 C   0  0  0  0  0  0  0  0  0  0  0  0
    2.6394   -0.6012    3.8096 N   0  0  0  0  0  0  0  0  0  0  0  0
    3.7760   -0.7143    3.0678 C   0  0  0  0  0  0  0  0  0  0  0  0
    3.7630   -0.4126    1.7384 N   0  0  0  0  0  0  0  0  0  0  0  0
    2.6325    0.0254    1.1086 C   0  0  0  0  0  0  0  0  0  0  0  0
    2.6511    0.2303   -0.3113 N   0  0  0  0  0  0  0  0  0  0  0  0
    3.8439    0.7321   -1.0005 C   0  0  2  0  0  0  0  0  0  0  0  0
    3.4679    1.3665   -2.3507 C   0  0  0  0  0  0  0  0  0  0  0  0
    2.8767    0.4262   -3.2131 O   0  0  0  0  0  0  0  0  0  0  0  0
    4.8810   -0.3602   -1.1757 C   0  0  0  0  0  0  0  0  0  0  0  0
    6.2486   -0.0473   -1.0570 C   0  0  0  0  0  0  0  0  0  0  0  0
    7.2182   -1.0371   -1.2243 C   0  0  0  0  0  0  0  0  0  0  0  0
    6.8370   -2.3457   -1.5294 C   0  0  0  0  0  0  0  0  0  0  0  0
    5.4828   -2.6643   -1.6712 C   0  0  0  0  0  0  0  0  0  0  0  0
    4.5076   -1.6782   -1.5009 C   0  0  0  0  0  0  0  0  0  0  0  0
    1.4602    0.1846    1.8732 C   0  0  0  0  0  0  0  0  0  0  0  0
   -2.1422    1.1196    2.4707 C   0  0  0  0  0  0  0  0  0  0  0  0
   -7.7988    0.1224   -0.3153 H   0  0  0  0  0  0  0  0  0  0  0  0
   -7.7511   -0.6289   -1.9346 H   0  0  0  0  0  0  0  0  0  0  0  0
   -6.3792    0.4152   -1.4071 H   0  0  0  0  0  0  0  0  0  0  0  0
   -5.0254   -3.0052   -1.0380 H   0  0  0  0  0  0  0  0  0  0  0  0
   -6.0244   -2.3998   -2.3938 H   0  0  0  0  0  0  0  0  0  0  0  0
   -4.7114   -1.3567   -1.7261 H   0  0  0  0  0  0  0  0  0  0  0  0
   -6.6410   -0.9397    1.5389 H   0  0  0  0  0  0  0  0  0  0  0  0
   -5.4766   -2.2423    1.2234 H   0  0  0  0  0  0  0  0  0  0  0  0
   -3.7115   -0.6822    0.6413 H   0  0  0  0  0  0  0  0  0  0  0  0
   -5.9247    1.4025    1.0113 H   0  0  0  0  0  0  0  0  0  0  0  0
   -1.0529    3.1829    0.7865 H   0  0  0  0  0  0  0  0  0  0  0  0
   -1.7671    2.4713   -0.7084 H   0  0  0  0  0  0  0  0  0  0  0  0
   -0.4791    0.4409   -0.5116 H   0  0  0  0  0  0  0  0  0  0  0  0
    0.6459    1.8459   -0.2643 H   0  0  0  0  0  0  0  0  0  0  0  0
    4.6911   -1.0600    3.5312 H   0  0  0  0  0  0  0  0  0  0  0  0
    1.8339   -0.0945   -0.8743 H   0  0  0  0  0  0  0  0  0  0  0  0
    4.2770    1.5471   -0.3755 H   0  0  0  0  0  0  0  0  0  0  0  0
    4.3693    1.8254   -2.8201 H   0  0  0  0  0  0  0  0  0  0  0  0
    2.7391    2.1873   -2.1736 H   0  0  0  0  0  0  0  0  0  0  0  0
    3.6116    0.0049   -3.7300 H   0  0  0  0  0  0  0  0  0  0  0  0
    6.5631    0.9640   -0.8292 H   0  0  0  0  0  0  0  0  0  0  0  0
    8.2663   -0.7886   -1.1182 H   0  0  0  0  0  0  0  0  0  0  0  0
    7.5896   -3.1109   -1.6586 H   0  0  0  0  0  0  0  0  0  0  0  0
    5.1908   -3.6768   -1.9150 H   0  0  0  0  0  0  0  0  0  0  0  0
    3.4627   -1.9427   -1.6202 H   0  0  0  0  0  0  0  0  0  0  0  0
   -2.7982    0.2586    2.7147 H   0  0  0  0  0  0  0  0  0  0  0  0
   -2.3140    1.9191    3.2236 H   0  0  0  0  0  0  0  0  0  0  0  0
  1  2  1  0
  2  3  1  0
  2  4  1  0
  4  5  1  0
  5  6  2  0
  6  7  1  0
  7  8  2  0
  7  9  1  0
  9 10  1  0
 10 11  1  0
 11 12  1  0
 12 13  2  0
 13 14  1  0
 14 15  1  0
 15 16  2  0
 16 17  1  0
 17 18  2  0
 18 19  1  0
 19 20  1  0
 20 21  1  0
 21 22  1  0
 22 23  1  0
 21 24  1  0
 24 25  2  0
 25 26  1  0
 26 27  2  0
 27 28  1  0
 28 29  2  0
 19 30  2  0
 13 31  1  0
 31  9  1  0
 30 12  1  0
 30 15  1  0
 29 24  1  0
  1 32  1  0
  1 33  1  0
  1 34  1  0
  3 35  1  0
  3 36  1  0
  3 37  1  0
  4 38  1  0
  4 39  1  0
  5 40  1  0
  6 41  1  0
 10 42  1  0
 10 43  1  0
 11 44  1  0
 11 45  1  0
 17 46  1  0
 20 47  1  0
 21 48  1  1
 22 49  1  0
 22 50  1  0
 23 51  1  0
 25 52  1  0
 26 53  1  0
 27 54  1  0
 28 55  1  0
 29 56  1  0
 31 57  1  0
 31 58  1  0
M  END
