
     RDKit          3D

 79 83  0  0  0  0  0  0  0  0999 V2000
   -4.3240    3.2346    4.2291 C   0  0  0  0  0  0  0  0  0  0  0  0
   -3.5466    2.0671    3.7118 C   0  0  0  0  0  0  0  0  0  0  0  0
   -3.6621    1.6764    2.4405 C   0  0  0  0  0  0  0  0  0  0  0  0
   -2.9227    0.5213    1.8978 C   0  0  0  0  0  0  0  0  0  0  0  0
   -2.1002   -0.1058    2.6213 O   0  0  0  0  0  0  0  0  0  0  0  0
   -3.1618    0.1010    0.5472 N   0  0  0  0  0  0  0  0  0  0  0  0
   -2.4266   -0.9575   -0.0781 C   0  0  0  0  0  0  0  0  0  0  0  0
   -1.0155   -0.9054   -0.1271 C   0  0  0  0  0  0  0  0  0  0  0  0
   -0.2681   -1.8933   -0.8206 C   0  0  0  0  0  0  0  0  0  0  0  0
    1.1676   -1.8480   -0.8697 N   0  0  0  0  0  0  0  0  0  0  0  0
    1.9380   -0.6434   -0.9888 C   0  0  0  0  0  0  0  0  0  0  0  0
    1.3416    0.5460   -1.2681 N   0  0  0  0  0  0  0  0  0  0  0  0
    2.0727    1.6808   -1.4063 C   0  0  0  0  0  0  0  0  0  0  0  0
    3.4594    1.6356   -1.2765 C   0  0  0  0  0  0  0  0  0  0  0  0
    4.0686    0.4025   -1.0117 C   0  0  0  0  0  0  0  0  0  0  0  0
    5.5364    0.2868   -0.8822 C   0  0  0  0  0  0  0  0  0  0  0  0
    6.4190    1.2988   -0.5065 C   0  0  0  0  0  0  0  0  0  0  0  0
    7.6830    0.8223   -0.4592 N   0  0  0  0  0  0  0  0  0  0  0  0
    9.0860    1.7162    0.0288 S   0  0  0  0  0  0  0  0  0  0  0  0
   10.1654    1.5580   -1.0039 O   0  0  0  0  0  0  0  0  0  0  0  0
    8.7373    3.1744    0.1509 O   0  0  0  0  0  0  0  0  0  0  0  0
    9.6467    1.1098    1.6124 C   0  0  0  0  0  0  0  0  0  0  0  0
   10.8940    1.8503    2.0752 C   0  0  0  0  0  0  0  0  0  0  0  0
    7.6204   -0.4794   -0.7990 C   0  0  0  0  0  0  0  0  0  0  0  0
    8.6716   -1.3946   -0.8968 C   0  0  0  0  0  0  0  0  0  0  0  0
    8.3672   -2.7117   -1.2818 C   0  0  0  0  0  0  0  0  0  0  0  0
    7.0363   -3.0843   -1.5633 C   0  0  0  0  0  0  0  0  0  0  0  0
    5.9955   -2.1461   -1.4571 C   0  0  0  0  0  0  0  0  0  0  0  0
    6.3215   -0.8445   -1.0635 C   0  0  0  0  0  0  0  0  0  0  0  0
    3.2908   -0.7034   -0.8744 N   0  0  0  0  0  0  0  0  0  0  0  0
   -0.9386   -2.9682   -1.4355 C   0  0  0  0  0  0  0  0  0  0  0  0
   -2.3251   -3.0006   -1.3655 C   0  0  0  0  0  0  0  0  0  0  0  0
   -3.2288   -3.9133   -1.8566 C   0  0  0  0  0  0  0  0  0  0  0  0
   -4.4690   -3.5111   -1.5012 N   0  0  0  0  0  0  0  0  0  0  0  0
   -4.3672   -2.3831   -0.8041 N   0  0  0  0  0  0  0  0  0  0  0  0
   -5.5375   -1.6964   -0.2606 C   0  0  0  0  0  0  0  0  0  0  0  0
   -6.1018   -0.7059   -1.2859 C   0  0  0  0  0  0  0  0  0  0  0  0
   -7.0599    0.2217   -0.6426 N   0  0  0  0  0  0  0  0  0  0  0  0
   -7.2481    1.4368   -1.4661 C   0  0  0  0  0  0  0  0  0  0  0  0
   -7.8015    2.5839   -0.6224 C   0  0  0  0  0  0  0  0  0  0  0  0
   -8.3528   -0.4448   -0.3339 C   0  0  0  0  0  0  0  0  0  0  0  0
   -8.5559   -0.4960    1.1755 C   0  0  0  0  0  0  0  0  0  0  0  0
   -3.0587   -2.0409   -0.7205 C   0  0  0  0  0  0  0  0  0  0  0  0
   -5.4123    3.0354    4.1313 H   0  0  0  0  0  0  0  0  0  0  0  0
   -4.0620    4.1491    3.6561 H   0  0  0  0  0  0  0  0  0  0  0  0
   -4.0855    3.3989    5.2999 H   0  0  0  0  0  0  0  0  0  0  0  0
   -2.8966    1.5359    4.3951 H   0  0  0  0  0  0  0  0  0  0  0  0
   -4.3300    2.2149    1.7802 H   0  0  0  0  0  0  0  0  0  0  0  0
   -3.8947    0.5940   -0.0067 H   0  0  0  0  0  0  0  0  0  0  0  0
   -0.5034   -0.0963    0.3758 H   0  0  0  0  0  0  0  0  0  0  0  0
    1.6849   -2.7558   -0.9212 H   0  0  0  0  0  0  0  0  0  0  0  0
    1.5776    2.6173   -1.6263 H   0  0  0  0  0  0  0  0  0  0  0  0
    4.0403    2.5373   -1.4076 H   0  0  0  0  0  0  0  0  0  0  0  0
    6.1459    2.3148   -0.2515 H   0  0  0  0  0  0  0  0  0  0  0  0
    8.8378    1.2482    2.3588 H   0  0  0  0  0  0  0  0  0  0  0  0
    9.8708    0.0254    1.5297 H   0  0  0  0  0  0  0  0  0  0  0  0
   10.6775    2.9331    2.2001 H   0  0  0  0  0  0  0  0  0  0  0  0
   11.2254    1.4402    3.0522 H   0  0  0  0  0  0  0  0  0  0  0  0
   11.7136    1.7224    1.3379 H   0  0  0  0  0  0  0  0  0  0  0  0
    9.6936   -1.1072   -0.6885 H   0  0  0  0  0  0  0  0  0  0  0  0
    9.1596   -3.4442   -1.3667 H   0  0  0  0  0  0  0  0  0  0  0  0
    6.8155   -4.0997   -1.8659 H   0  0  0  0  0  0  0  0  0  0  0  0
    4.9800   -2.4364   -1.6860 H   0  0  0  0  0  0  0  0  0  0  0  0
   -0.3931   -3.7466   -1.9545 H   0  0  0  0  0  0  0  0  0  0  0  0
   -3.0080   -4.8072   -2.4251 H   0  0  0  0  0  0  0  0  0  0  0  0
   -6.3128   -2.4525   -0.0169 H   0  0  0  0  0  0  0  0  0  0  0  0
   -5.2857   -1.1915    0.6937 H   0  0  0  0  0  0  0  0  0  0  0  0
   -5.2442   -0.1469   -1.7212 H   0  0  0  0  0  0  0  0  0  0  0  0
   -6.5816   -1.2557   -2.1268 H   0  0  0  0  0  0  0  0  0  0  0  0
   -6.2755    1.7917   -1.8741 H   0  0  0  0  0  0  0  0  0  0  0  0
   -7.9184    1.2354   -2.3323 H   0  0  0  0  0  0  0  0  0  0  0  0
   -8.8356    2.3658   -0.2833 H   0  0  0  0  0  0  0  0  0  0  0  0
   -7.1520    2.7523    0.2629 H   0  0  0  0  0  0  0  0  0  0  0  0
   -7.8270    3.5134   -1.2295 H   0  0  0  0  0  0  0  0  0  0  0  0
   -8.4013   -1.4847   -0.7283 H   0  0  0  0  0  0  0  0  0  0  0  0
   -9.2229    0.0850   -0.7817 H   0  0  0  0  0  0  0  0  0  0  0  0
   -8.5342    0.5290    1.6021 H   0  0  0  0  0  0  0  0  0  0  0  0
   -7.7554   -1.1010    1.6506 H   0  0  0  0  0  0  0  0  0  0  0  0
   -9.5371   -0.9606    1.4068 H   0  0  0  0  0  0  0  0  0  0  0  0
  1  2  1  0
  2  3  2  0
  3  4  1  0
  4  5  2  0
  4  6  1  0
  6  7  1  0
  7  8  2  0
  8  9  1  0
  9 10  1  0
 10 11  1  0
 11 12  2  0
 12 13  1  0
 13 14  2  0
 14 15  1  0
 15 16  1  0
 16 17  2  0
 17 18  1  0
 18 19  1  0
 19 20  2  0
 19 21  2  0
 19 22  1  0
 22 23  1  0
 18 24  1  0
 24 25  2  0
 25 26  1  0
 26 27  2  0
 27 28  1  0
 28 29  2  0
 15 30  2  0
  9 31  2  0
 31 32  1  0
 32 33  1  0
 33 34  2  0
 34 35  1  0
 35 36  1  0
 36 37  1  0
 37 38  1  0
 38 39  1  0
 39 40  1  0
 38 41  1  0
 41 42  1  0
 35 43  1  0
 43  7  1  0
 30 11  1  0
 43 32  2  0
 29 16  1  0
 29 24  1  0
  1 44  1  0
  1 45  1  0
  1 46  1  0
  2 47  1  0
  3 48  1  0
  6 49  1  0
  8 50  1  0
 10 51  1  0
 13 52  1  0
 14 53  1  0
 17 54  1  0
 22 55  1  0
 22 56  1  0
 23 57  1  0
 23 58  1  0
 23 59  1  0
 25 60  1  0
 26 61  1  0
 27 62  1  0
 28 63  1  0
 31 64  1  0
 33 65  1  0
 36 66  1  0
 36 67  1  0
 37 68  1  0
 37 69  1  0
 39 70  1  0
 39 71  1  0
 40 72  1  0
 40 73  1  0
 40 74  1  0
 41 75  1  0
 41 76  1  0
 42 77  1  0
 42 78  1  0
 42 79  1  0
M  END
