MODEL 1
REMARK VINA RESULT:    -8.203      0.000      0.000
REMARK INTER + INTRA:         -11.471
REMARK INTER:                 -10.601
REMARK INTRA:                  -0.870
REMARK UNBOUND:                -0.870
REMARK  Name = 
REMARK  5 active torsions:
REMARK  status: ('A' for Active; 'I' for Inactive)
REMARK    1  A    between atoms: C_2  and  C_3
REMARK    2  A    between atoms: C_2  and  C_6
REMARK    3  A    between atoms: C_6  and  C_7
REMARK    4  A    between atoms: C_10  and  N_11
REMARK    5  A    between atoms: N_11  and  C_12
REMARK                            x       y       z     vdW  Elec       q    Type
REMARK                         _______ _______ _______ _____ _____    ______ ____
ROOT
ATOM      1  C   UNL     1      20.492   0.746  51.809  0.00  0.00    +0.000 A 
ATOM      2  C   UNL     1      21.857   0.608  52.028  0.00  0.00    +0.000 A 
ATOM      3  C   UNL     1      22.314  -0.144  53.137  0.00  0.00    +0.000 A 
ATOM      4  C   UNL     1      23.659  -0.264  53.530  0.00  0.00    +0.000 A 
ATOM      5  N   UNL     1      24.024  -0.936  54.637  0.00  0.00    +0.000 NA
ATOM      6  C   UNL     1      23.047  -1.512  55.343  0.00  0.00    +0.000 A 
ATOM      7  N   UNL     1      21.744  -1.473  55.060  0.00  0.00    +0.000 NA
ATOM      8  C   UNL     1      21.390  -0.777  53.969  0.00  0.00    +0.000 A 
ATOM      9  C   UNL     1      20.059  -0.627  53.617  0.00  0.00    +0.000 A 
ATOM     10  N   UNL     1      19.590   0.102  52.573  0.00  0.00    +0.000 NA
ENDROOT
BRANCH   4  11
ATOM     11  N   UNL     1      24.660   0.341  52.734  0.00  0.00    +0.000 N 
ATOM     12  H   UNL     1      24.391   0.600  51.823  0.00  0.00    +0.000 HD
BRANCH  11  13
ATOM     13  C   UNL     1      25.997   0.618  53.087  0.00  0.00    +0.000 A 
ATOM     14  C   UNL     1      26.459   1.930  53.263  0.00  0.00    +0.000 A 
ATOM     15  C   UNL     1      27.814   2.197  53.480  0.00  0.00    +0.000 A 
ATOM     16  C   UNL     1      28.732   1.150  53.523  0.00  0.00    +0.000 A 
ATOM     17  C   UNL     1      28.284  -0.158  53.356  0.00  0.00    +0.000 A 
ATOM     18 BR   UNL     1      29.524  -1.584  53.406  0.00  0.00    +0.000 Br
ATOM     19  C   UNL     1      26.930  -0.427  53.134  0.00  0.00    +0.000 A 
ENDBRANCH  11  13
ENDBRANCH   4  11
BRANCH   1  20
ATOM     20  C   UNL     1      19.960   1.669  50.745  0.00  0.00    +0.000 C 
BRANCH  20  22
ATOM     21  O   UNL     1      18.849   3.360  52.013  0.00  0.00    +0.000 OA
ATOM     22  C   UNL     1      19.780   3.084  51.248  0.00  0.00    +0.000 C 
BRANCH  22  23
ATOM     23  C   UNL     1      20.631   4.219  50.790  0.00  0.00    +0.000 C 
ATOM     24  C   UNL     1      21.833   4.645  51.181  0.00  0.00    +0.000 C 
ATOM     25 CL   UNL     1      22.810   4.052  52.442  0.00  0.00    +0.000 Cl
ENDBRANCH  22  23
ENDBRANCH  20  22
ENDBRANCH   1  20
TORSDOF 5
ENDMDL
MODEL 2
REMARK VINA RESULT:    -8.101      3.908      6.439
REMARK INTER + INTRA:         -11.339
REMARK INTER:                 -10.614
REMARK INTRA:                  -0.724
REMARK UNBOUND:                -0.870
REMARK  Name = 
REMARK  5 active torsions:
REMARK  status: ('A' for Active; 'I' for Inactive)
REMARK    1  A    between atoms: C_2  and  C_3
REMARK    2  A    between atoms: C_2  and  C_6
REMARK    3  A    between atoms: C_6  and  C_7
REMARK    4  A    between atoms: C_10  and  N_11
REMARK    5  A    between atoms: N_11  and  C_12
REMARK                            x       y       z     vdW  Elec       q    Type
REMARK                         _______ _______ _______ _____ _____    ______ ____
ROOT
ATOM      1  C   UNL     1      25.487   0.165  52.869  0.00  0.00    +0.000 A 
ATOM      2  C   UNL     1      24.849   1.086  52.046  0.00  0.00    +0.000 A 
ATOM      3  C   UNL     1      23.448   1.259  52.144  0.00  0.00    +0.000 A 
ATOM      4  C   UNL     1      22.675   2.071  51.295  0.00  0.00    +0.000 A 
ATOM      5  N   UNL     1      21.335   2.139  51.395  0.00  0.00    +0.000 NA
ATOM      6  C   UNL     1      20.764   1.412  52.360  0.00  0.00    +0.000 A 
ATOM      7  N   UNL     1      21.397   0.618  53.225  0.00  0.00    +0.000 NA
ATOM      8  C   UNL     1      22.730   0.539  53.098  0.00  0.00    +0.000 A 
ATOM      9  C   UNL     1      23.476  -0.300  53.910  0.00  0.00    +0.000 A 
ATOM     10  N   UNL     1      24.816  -0.501  53.826  0.00  0.00    +0.000 NA
ENDROOT
BRANCH   4  11
ATOM     11  N   UNL     1      23.329   2.843  50.306  0.00  0.00    +0.000 N 
ATOM     12  H   UNL     1      23.346   2.459  49.400  0.00  0.00    +0.000 HD
BRANCH  11  13
ATOM     13  C   UNL     1      23.958   4.095  50.461  0.00  0.00    +0.000 A 
ATOM     14  C   UNL     1      23.438   5.086  51.305  0.00  0.00    +0.000 A 
ATOM     15  C   UNL     1      23.994   6.367  51.347  0.00  0.00    +0.000 A 
ATOM     16  C   UNL     1      25.085   6.679  50.539  0.00  0.00    +0.000 A 
ATOM     17  C   UNL     1      25.616   5.702  49.702  0.00  0.00    +0.000 A 
ATOM     18 BR   UNL     1      27.092   6.119  48.596  0.00  0.00    +0.000 Br
ATOM     19  C   UNL     1      25.058   4.421  49.654  0.00  0.00    +0.000 A 
ENDBRANCH  11  13
ENDBRANCH   4  11
BRANCH   1  20
ATOM     20  C   UNL     1      26.942  -0.172  52.685  0.00  0.00    +0.000 C 
BRANCH  20  22
ATOM     21  O   UNL     1      27.326   1.209  54.596  0.00  0.00    +0.000 OA
ATOM     22  C   UNL     1      27.815   0.444  53.756  0.00  0.00    +0.000 C 
BRANCH  22  23
ATOM     23  C   UNL     1      29.293   0.251  53.805  0.00  0.00    +0.000 C 
ATOM     24  C   UNL     1      30.055  -0.831  53.639  0.00  0.00    +0.000 C 
ATOM     25 CL   UNL     1      29.568  -2.441  53.377  0.00  0.00    +0.000 Cl
ENDBRANCH  22  23
ENDBRANCH  20  22
ENDBRANCH   1  20
TORSDOF 5
ENDMDL
MODEL 3
REMARK VINA RESULT:    -8.079      3.918      6.585
REMARK INTER + INTRA:         -11.310
REMARK INTER:                 -10.444
REMARK INTRA:                  -0.866
REMARK UNBOUND:                -0.870
REMARK  Name = 
REMARK  5 active torsions:
REMARK  status: ('A' for Active; 'I' for Inactive)
REMARK    1  A    between atoms: C_2  and  C_3
REMARK    2  A    between atoms: C_2  and  C_6
REMARK    3  A    between atoms: C_6  and  C_7
REMARK    4  A    between atoms: C_10  and  N_11
REMARK    5  A    between atoms: N_11  and  C_12
REMARK                            x       y       z     vdW  Elec       q    Type
REMARK                         _______ _______ _______ _____ _____    ______ ____
ROOT
ATOM      1  C   UNL     1      25.238   0.361  52.792  0.00  0.00    +0.000 A 
ATOM      2  C   UNL     1      24.165   1.183  52.466  0.00  0.00    +0.000 A 
ATOM      3  C   UNL     1      22.882   0.899  52.994  0.00  0.00    +0.000 A 
ATOM      4  C   UNL     1      21.702   1.584  52.652  0.00  0.00    +0.000 A 
ATOM      5  N   UNL     1      20.499   1.220  53.134  0.00  0.00    +0.000 NA
ATOM      6  C   UNL     1      20.475   0.186  53.980  0.00  0.00    +0.000 A 
ATOM      7  N   UNL     1      21.529  -0.527  54.380  0.00  0.00    +0.000 NA
ATOM      8  C   UNL     1      22.719  -0.172  53.872  0.00  0.00    +0.000 A 
ATOM      9  C   UNL     1      23.868  -0.882  54.179  0.00  0.00    +0.000 A 
ATOM     10  N   UNL     1      25.106  -0.646  53.675  0.00  0.00    +0.000 NA
ENDROOT
BRANCH   4  11
ATOM     11  N   UNL     1      21.783   2.690  51.774  0.00  0.00    +0.000 N 
ATOM     12  H   UNL     1      21.831   3.577  52.198  0.00  0.00    +0.000 HD
BRANCH  11  13
ATOM     13  C   UNL     1      21.802   2.676  50.364  0.00  0.00    +0.000 A 
ATOM     14  C   UNL     1      21.692   1.484  49.634  0.00  0.00    +0.000 A 
ATOM     15  C   UNL     1      21.848   1.468  48.246  0.00  0.00    +0.000 A 
ATOM     16  C   UNL     1      22.119   2.651  47.562  0.00  0.00    +0.000 A 
ATOM     17  C   UNL     1      22.224   3.842  48.274  0.00  0.00    +0.000 A 
ATOM     18 BR   UNL     1      22.599   5.452  47.355  0.00  0.00    +0.000 Br
ATOM     19  C   UNL     1      22.074   3.860  49.664  0.00  0.00    +0.000 A 
ENDBRANCH  11  13
ENDBRANCH   4  11
BRANCH   1  20
ATOM     20  C   UNL     1      26.578   0.524  52.127  0.00  0.00    +0.000 C 
BRANCH  20  22
ATOM     21  O   UNL     1      27.851   2.523  52.415  0.00  0.00    +0.000 OA
ATOM     22  C   UNL     1      27.497   1.443  52.900  0.00  0.00    +0.000 C 
BRANCH  22  23
ATOM     23  C   UNL     1      28.093   1.070  54.215  0.00  0.00    +0.000 C 
ATOM     24  C   UNL     1      28.965   0.122  54.560  0.00  0.00    +0.000 C 
ATOM     25 CL   UNL     1      29.666  -1.081  53.580  0.00  0.00    +0.000 Cl
ENDBRANCH  22  23
ENDBRANCH  20  22
ENDBRANCH   1  20
TORSDOF 5
ENDMDL
MODEL 4
REMARK VINA RESULT:    -7.967      2.207      2.645
REMARK INTER + INTRA:         -11.165
REMARK INTER:                 -10.020
REMARK INTRA:                  -1.145
REMARK UNBOUND:                -0.870
REMARK  Name = 
REMARK  5 active torsions:
REMARK  status: ('A' for Active; 'I' for Inactive)
REMARK    1  A    between atoms: C_2  and  C_3
REMARK    2  A    between atoms: C_2  and  C_6
REMARK    3  A    between atoms: C_6  and  C_7
REMARK    4  A    between atoms: C_10  and  N_11
REMARK    5  A    between atoms: N_11  and  C_12
REMARK                            x       y       z     vdW  Elec       q    Type
REMARK                         _______ _______ _______ _____ _____    ______ ____
ROOT
ATOM      1  C   UNL     1      22.082   3.004  51.442  0.00  0.00    +0.000 A 
ATOM      2  C   UNL     1      22.955   1.972  51.765  0.00  0.00    +0.000 A 
ATOM      3  C   UNL     1      22.577   1.014  52.735  0.00  0.00    +0.000 A 
ATOM      4  C   UNL     1      23.411  -0.006  53.228  0.00  0.00    +0.000 A 
ATOM      5  N   UNL     1      23.017  -0.844  54.204  0.00  0.00    +0.000 NA
ATOM      6  C   UNL     1      21.777  -0.681  54.675  0.00  0.00    +0.000 A 
ATOM      7  N   UNL     1      20.900   0.242  54.277  0.00  0.00    +0.000 NA
ATOM      8  C   UNL     1      21.314   1.088  53.322  0.00  0.00    +0.000 A 
ATOM      9  C   UNL     1      20.501   2.118  52.877  0.00  0.00    +0.000 A 
ATOM     10  N   UNL     1      20.842   3.062  51.964  0.00  0.00    +0.000 NA
ENDROOT
BRANCH   4  11
ATOM     11  N   UNL     1      24.707  -0.155  52.678  0.00  0.00    +0.000 N 
ATOM     12  H   UNL     1      24.765  -0.677  51.845  0.00  0.00    +0.000 HD
BRANCH  11  13
ATOM     13  C   UNL     1      25.923   0.353  53.178  0.00  0.00    +0.000 A 
ATOM     14  C   UNL     1      26.069   1.700  53.539  0.00  0.00    +0.000 A 
ATOM     15  C   UNL     1      27.313   2.221  53.904  0.00  0.00    +0.000 A 
ATOM     16  C   UNL     1      28.437   1.398  53.913  0.00  0.00    +0.000 A 
ATOM     17  C   UNL     1      28.303   0.057  53.563  0.00  0.00    +0.000 A 
ATOM     18 BR   UNL     1      29.825  -1.066  53.565  0.00  0.00    +0.000 Br
ATOM     19  C   UNL     1      27.061  -0.465  53.192  0.00  0.00    +0.000 A 
ENDBRANCH  11  13
ENDBRANCH   4  11
BRANCH   1  20
ATOM     20  C   UNL     1      22.505   4.135  50.544  0.00  0.00    +0.000 C 
BRANCH  20  22
ATOM     21  O   UNL     1      24.063   5.086  52.083  0.00  0.00    +0.000 OA
ATOM     22  C   UNL     1      23.854   4.702  50.927  0.00  0.00    +0.000 C 
BRANCH  22  23
ATOM     23  C   UNL     1      24.950   4.916  49.940  0.00  0.00    +0.000 C 
ATOM     24  C   UNL     1      26.001   4.170  49.601  0.00  0.00    +0.000 C 
ATOM     25 CL   UNL     1      26.506   2.685  50.265  0.00  0.00    +0.000 Cl
ENDBRANCH  22  23
ENDBRANCH  20  22
ENDBRANCH   1  20
TORSDOF 5
ENDMDL
MODEL 5
REMARK VINA RESULT:    -7.964      4.149      7.441
REMARK INTER + INTRA:         -11.161
REMARK INTER:                 -10.411
REMARK INTRA:                  -0.750
REMARK UNBOUND:                -0.870
REMARK  Name = 
REMARK  5 active torsions:
REMARK  status: ('A' for Active; 'I' for Inactive)
REMARK    1  A    between atoms: C_2  and  C_3
REMARK    2  A    between atoms: C_2  and  C_6
REMARK    3  A    between atoms: C_6  and  C_7
REMARK    4  A    between atoms: C_10  and  N_11
REMARK    5  A    between atoms: N_11  and  C_12
REMARK                            x       y       z     vdW  Elec       q    Type
REMARK                         _______ _______ _______ _____ _____    ______ ____
ROOT
ATOM      1  C   UNL     1      26.568   2.200  52.716  0.00  0.00    +0.000 A 
ATOM      2  C   UNL     1      25.192   2.120  52.896  0.00  0.00    +0.000 A 
ATOM      3  C   UNL     1      24.326   2.425  51.819  0.00  0.00    +0.000 A 
ATOM      4  C   UNL     1      22.924   2.491  51.906  0.00  0.00    +0.000 A 
ATOM      5  N   UNL     1      22.159   2.857  50.861  0.00  0.00    +0.000 NA
ATOM      6  C   UNL     1      22.791   3.136  49.718  0.00  0.00    +0.000 A 
ATOM      7  N   UNL     1      24.110   3.097  49.519  0.00  0.00    +0.000 NA
ATOM      8  C   UNL     1      24.864   2.756  50.575  0.00  0.00    +0.000 A 
ATOM      9  C   UNL     1      26.247   2.740  50.491  0.00  0.00    +0.000 A 
ATOM     10  N   UNL     1      27.101   2.470  51.510  0.00  0.00    +0.000 NA
ENDROOT
BRANCH   4  11
ATOM     11  N   UNL     1      22.299   2.160  53.131  0.00  0.00    +0.000 N 
ATOM     12  H   UNL     1      22.274   2.872  53.810  0.00  0.00    +0.000 HD
BRANCH  11  13
ATOM     13  C   UNL     1      21.708   0.933  53.498  0.00  0.00    +0.000 A 
ATOM     14  C   UNL     1      22.448  -0.095  54.098  0.00  0.00    +0.000 A 
ATOM     15  C   UNL     1      21.884  -1.352  54.332  0.00  0.00    +0.000 A 
ATOM     16  C   UNL     1      20.563  -1.601  53.967  0.00  0.00    +0.000 A 
ATOM     17  C   UNL     1      19.815  -0.585  53.377  0.00  0.00    +0.000 A 
ATOM     18 BR   UNL     1      18.023  -0.917  52.871  0.00  0.00    +0.000 Br
ATOM     19  C   UNL     1      20.379   0.670  53.136  0.00  0.00    +0.000 A 
ENDBRANCH  11  13
ENDBRANCH   4  11
BRANCH   1  20
ATOM     20  C   UNL     1      27.518   2.047  53.872  0.00  0.00    +0.000 C 
BRANCH  20  22
ATOM     21  O   UNL     1      27.222  -0.275  54.345  0.00  0.00    +0.000 OA
ATOM     22  C   UNL     1      28.009   0.625  54.030  0.00  0.00    +0.000 C 
BRANCH  22  23
ATOM     23  C   UNL     1      29.448   0.250  53.916  0.00  0.00    +0.000 C 
ATOM     24  C   UNL     1      30.045  -0.901  53.604  0.00  0.00    +0.000 C 
ATOM     25 CL   UNL     1      29.333  -2.414  53.286  0.00  0.00    +0.000 Cl
ENDBRANCH  22  23
ENDBRANCH  20  22
ENDBRANCH   1  20
TORSDOF 5
ENDMDL
MODEL 6
REMARK VINA RESULT:    -7.959      3.786      5.028
REMARK INTER + INTRA:         -11.155
REMARK INTER:                  -9.647
REMARK INTRA:                  -1.507
REMARK UNBOUND:                -0.870
REMARK  Name = 
REMARK  5 active torsions:
REMARK  status: ('A' for Active; 'I' for Inactive)
REMARK    1  A    between atoms: C_2  and  C_3
REMARK    2  A    between atoms: C_2  and  C_6
REMARK    3  A    between atoms: C_6  and  C_7
REMARK    4  A    between atoms: C_10  and  N_11
REMARK    5  A    between atoms: N_11  and  C_12
REMARK                            x       y       z     vdW  Elec       q    Type
REMARK                         _______ _______ _______ _____ _____    ______ ____
ROOT
ATOM      1  C   UNL     1      22.804   1.337  51.759  0.00  0.00    +0.000 A 
ATOM      2  C   UNL     1      23.928   1.815  51.096  0.00  0.00    +0.000 A 
ATOM      3  C   UNL     1      25.175   1.843  51.765  0.00  0.00    +0.000 A 
ATOM      4  C   UNL     1      26.356   2.404  51.245  0.00  0.00    +0.000 A 
ATOM      5  N   UNL     1      27.494   2.464  51.960  0.00  0.00    +0.000 NA
ATOM      6  C   UNL     1      27.464   1.941  53.189  0.00  0.00    +0.000 A 
ATOM      7  N   UNL     1      26.408   1.377  53.778  0.00  0.00    +0.000 NA
ATOM      8  C   UNL     1      25.272   1.347  53.065  0.00  0.00    +0.000 A 
ATOM      9  C   UNL     1      24.103   0.834  53.604  0.00  0.00    +0.000 A 
ATOM     10  N   UNL     1      22.891   0.811  52.995  0.00  0.00    +0.000 NA
ENDROOT
BRANCH   4  11
ATOM     11  N   UNL     1      26.345   2.920  49.927  0.00  0.00    +0.000 N 
ATOM     12  H   UNL     1      26.305   2.256  49.203  0.00  0.00    +0.000 HD
BRANCH  11  13
ATOM     13  C   UNL     1      26.385   4.272  49.528  0.00  0.00    +0.000 A 
ATOM     14  C   UNL     1      27.423   4.778  48.732  0.00  0.00    +0.000 A 
ATOM     15  C   UNL     1      27.523   6.144  48.456  0.00  0.00    +0.000 A 
ATOM     16  C   UNL     1      26.582   7.030  48.975  0.00  0.00    +0.000 A 
ATOM     17  C   UNL     1      25.542   6.539  49.761  0.00  0.00    +0.000 A 
ATOM     18 BR   UNL     1      24.265   7.736  50.476  0.00  0.00    +0.000 Br
ATOM     19  C   UNL     1      25.444   5.174  50.043  0.00  0.00    +0.000 A 
ENDBRANCH  11  13
ENDBRANCH   4  11
BRANCH   1  20
ATOM     20  C   UNL     1      21.433   1.442  51.149  0.00  0.00    +0.000 C 
BRANCH  20  22
ATOM     21  O   UNL     1      19.717   2.439  52.477  0.00  0.00    +0.000 OA
ATOM     22  C   UNL     1      20.651   2.620  51.689  0.00  0.00    +0.000 C 
BRANCH  22  23
ATOM     23  C   UNL     1      20.889   4.021  51.240  0.00  0.00    +0.000 C 
ATOM     24  C   UNL     1      21.806   4.924  51.589  0.00  0.00    +0.000 C 
ATOM     25 CL   UNL     1      23.023   4.797  52.773  0.00  0.00    +0.000 Cl
ENDBRANCH  22  23
ENDBRANCH  20  22
ENDBRANCH   1  20
TORSDOF 5
ENDMDL
MODEL 7
REMARK VINA RESULT:    -7.905      1.767      2.109
REMARK INTER + INTRA:         -11.085
REMARK INTER:                 -10.544
REMARK INTRA:                  -0.541
REMARK UNBOUND:                -0.870
REMARK  Name = 
REMARK  5 active torsions:
REMARK  status: ('A' for Active; 'I' for Inactive)
REMARK    1  A    between atoms: C_2  and  C_3
REMARK    2  A    between atoms: C_2  and  C_6
REMARK    3  A    between atoms: C_6  and  C_7
REMARK    4  A    between atoms: C_10  and  N_11
REMARK    5  A    between atoms: N_11  and  C_12
REMARK                            x       y       z     vdW  Elec       q    Type
REMARK                         _______ _______ _______ _____ _____    ______ ____
ROOT
ATOM      1  C   UNL     1      20.437   0.680  51.889  0.00  0.00    +0.000 A 
ATOM      2  C   UNL     1      21.804   0.556  52.109  0.00  0.00    +0.000 A 
ATOM      3  C   UNL     1      22.269  -0.208  53.206  0.00  0.00    +0.000 A 
ATOM      4  C   UNL     1      23.615  -0.316  53.599  0.00  0.00    +0.000 A 
ATOM      5  N   UNL     1      23.988  -1.001  54.696  0.00  0.00    +0.000 NA
ATOM      6  C   UNL     1      23.017  -1.601  55.391  0.00  0.00    +0.000 A 
ATOM      7  N   UNL     1      21.714  -1.574  55.106  0.00  0.00    +0.000 NA
ATOM      8  C   UNL     1      21.353  -0.866  54.026  0.00  0.00    +0.000 A 
ATOM      9  C   UNL     1      20.020  -0.728  53.675  0.00  0.00    +0.000 A 
ATOM     10  N   UNL     1      19.543   0.012  52.642  0.00  0.00    +0.000 NA
ENDROOT
BRANCH   4  11
ATOM     11  N   UNL     1      24.609   0.315  52.814  0.00  0.00    +0.000 N 
ATOM     12  H   UNL     1      24.351   0.545  51.892  0.00  0.00    +0.000 HD
BRANCH  11  13
ATOM     13  C   UNL     1      25.924   0.654  53.192  0.00  0.00    +0.000 A 
ATOM     14  C   UNL     1      26.306   1.982  53.436  0.00  0.00    +0.000 A 
ATOM     15  C   UNL     1      27.640   2.319  53.677  0.00  0.00    +0.000 A 
ATOM     16  C   UNL     1      28.619   1.328  53.679  0.00  0.00    +0.000 A 
ATOM     17  C   UNL     1      28.252   0.005  53.446  0.00  0.00    +0.000 A 
ATOM     18 BR   UNL     1      29.576  -1.345  53.438  0.00  0.00    +0.000 Br
ATOM     19  C   UNL     1      26.919  -0.333  53.198  0.00  0.00    +0.000 A 
ENDBRANCH  11  13
ENDBRANCH   4  11
BRANCH   1  20
ATOM     20  C   UNL     1      19.895   1.613  50.840  0.00  0.00    +0.000 C 
BRANCH  20  22
ATOM     21  O   UNL     1      19.210   3.491  52.147  0.00  0.00    +0.000 OA
ATOM     22  C   UNL     1      18.864   2.570  51.398  0.00  0.00    +0.000 C 
BRANCH  22  23
ATOM     23  C   UNL     1      17.401   2.408  51.164  0.00  0.00    +0.000 C 
ATOM     24  C   UNL     1      16.691   1.419  50.621  0.00  0.00    +0.000 C 
ATOM     25 CL   UNL     1      17.251  -0.025  49.914  0.00  0.00    +0.000 Cl
ENDBRANCH  22  23
ENDBRANCH  20  22
ENDBRANCH   1  20
TORSDOF 5
ENDMDL
MODEL 8
REMARK VINA RESULT:    -7.835      4.134      7.516
REMARK INTER + INTRA:         -10.995
REMARK INTER:                 -10.097
REMARK INTRA:                  -0.897
REMARK UNBOUND:                -0.870
REMARK  Name = 
REMARK  5 active torsions:
REMARK  status: ('A' for Active; 'I' for Inactive)
REMARK    1  A    between atoms: C_2  and  C_3
REMARK    2  A    between atoms: C_2  and  C_6
REMARK    3  A    between atoms: C_6  and  C_7
REMARK    4  A    between atoms: C_10  and  N_11
REMARK    5  A    between atoms: N_11  and  C_12
REMARK                            x       y       z     vdW  Elec       q    Type
REMARK                         _______ _______ _______ _____ _____    ______ ____
ROOT
ATOM      1  C   UNL     1      25.982   1.064  51.627  0.00  0.00    +0.000 A 
ATOM      2  C   UNL     1      24.657   1.321  51.958  0.00  0.00    +0.000 A 
ATOM      3  C   UNL     1      24.134   2.625  51.789  0.00  0.00    +0.000 A 
ATOM      4  C   UNL     1      22.850   3.037  52.190  0.00  0.00    +0.000 A 
ATOM      5  N   UNL     1      22.436   4.311  52.067  0.00  0.00    +0.000 NA
ATOM      6  C   UNL     1      23.296   5.175  51.519  0.00  0.00    +0.000 A 
ATOM      7  N   UNL     1      24.530   4.894  51.095  0.00  0.00    +0.000 NA
ATOM      8  C   UNL     1      24.940   3.626  51.248  0.00  0.00    +0.000 A 
ATOM      9  C   UNL     1      26.223   3.242  50.892  0.00  0.00    +0.000 A 
ATOM     10  N   UNL     1      26.757   2.006  51.060  0.00  0.00    +0.000 NA
ENDROOT
BRANCH   4  11
ATOM     11  N   UNL     1      21.966   2.079  52.740  0.00  0.00    +0.000 N 
ATOM     12  H   UNL     1      22.094   1.870  53.694  0.00  0.00    +0.000 HD
BRANCH  11  13
ATOM     13  C   UNL     1      20.924   1.388  52.088  0.00  0.00    +0.000 A 
ATOM     14  C   UNL     1      20.564   1.671  50.763  0.00  0.00    +0.000 A 
ATOM     15  C   UNL     1      19.446   1.076  50.174  0.00  0.00    +0.000 A 
ATOM     16  C   UNL     1      18.665   0.184  50.905  0.00  0.00    +0.000 A 
ATOM     17  C   UNL     1      19.016  -0.111  52.220  0.00  0.00    +0.000 A 
ATOM     18 BR   UNL     1      17.957  -1.315  53.223  0.00  0.00    +0.000 Br
ATOM     19  C   UNL     1      20.131   0.488  52.813  0.00  0.00    +0.000 A 
ENDBRANCH  11  13
ENDBRANCH   4  11
BRANCH   1  20
ATOM     20  C   UNL     1      26.625  -0.259  51.945  0.00  0.00    +0.000 C 
BRANCH  20  22
ATOM     21  O   UNL     1      26.266  -1.243  54.091  0.00  0.00    +0.000 OA
ATOM     22  C   UNL     1      26.905  -0.423  53.422  0.00  0.00    +0.000 C 
BRANCH  22  23
ATOM     23  C   UNL     1      27.873   0.437  54.161  0.00  0.00    +0.000 C 
ATOM     24  C   UNL     1      29.206   0.456  54.190  0.00  0.00    +0.000 C 
ATOM     25 CL   UNL     1      30.299  -0.592  53.411  0.00  0.00    +0.000 Cl
ENDBRANCH  22  23
ENDBRANCH  20  22
ENDBRANCH   1  20
TORSDOF 5
ENDMDL
MODEL 9
REMARK VINA RESULT:    -7.604      4.357      6.946
REMARK INTER + INTRA:         -10.697
REMARK INTER:                 -10.135
REMARK INTRA:                  -0.562
REMARK UNBOUND:                -0.870
REMARK  Name = 
REMARK  5 active torsions:
REMARK  status: ('A' for Active; 'I' for Inactive)
REMARK    1  A    between atoms: C_2  and  C_3
REMARK    2  A    between atoms: C_2  and  C_6
REMARK    3  A    between atoms: C_6  and  C_7
REMARK    4  A    between atoms: C_10  and  N_11
REMARK    5  A    between atoms: N_11  and  C_12
REMARK                            x       y       z     vdW  Elec       q    Type
REMARK                         _______ _______ _______ _____ _____    ______ ____
ROOT
ATOM      1  C   UNL     1      26.412   1.469  53.384  0.00  0.00    +0.000 A 
ATOM      2  C   UNL     1      25.486   2.446  53.039  0.00  0.00    +0.000 A 
ATOM      3  C   UNL     1      24.129   2.088  52.855  0.00  0.00    +0.000 A 
ATOM      4  C   UNL     1      23.122   2.958  52.398  0.00  0.00    +0.000 A 
ATOM      5  N   UNL     1      21.863   2.539  52.174  0.00  0.00    +0.000 NA
ATOM      6  C   UNL     1      21.599   1.254  52.430  0.00  0.00    +0.000 A 
ATOM      7  N   UNL     1      22.470   0.346  52.874  0.00  0.00    +0.000 NA
ATOM      8  C   UNL     1      23.728   0.770  53.068  0.00  0.00    +0.000 A 
ATOM      9  C   UNL     1      24.722  -0.106  53.474  0.00  0.00    +0.000 A 
ATOM     10  N   UNL     1      26.033   0.203  53.640  0.00  0.00    +0.000 NA
ENDROOT
BRANCH   4  11
ATOM     11  N   UNL     1      23.444   4.316  52.167  0.00  0.00    +0.000 N 
ATOM     12  H   UNL     1      23.153   4.953  52.858  0.00  0.00    +0.000 HD
BRANCH  11  13
ATOM     13  C   UNL     1      24.132   4.867  51.066  0.00  0.00    +0.000 A 
ATOM     14  C   UNL     1      24.604   4.069  50.014  0.00  0.00    +0.000 A 
ATOM     15  C   UNL     1      25.399   4.607  48.998  0.00  0.00    +0.000 A 
ATOM     16  C   UNL     1      25.737   5.958  49.020  0.00  0.00    +0.000 A 
ATOM     17  C   UNL     1      25.269   6.762  50.056  0.00  0.00    +0.000 A 
ATOM     18 BR   UNL     1      25.729   8.596  50.098  0.00  0.00    +0.000 Br
ATOM     19  C   UNL     1      24.478   6.225  51.076  0.00  0.00    +0.000 A 
ENDBRANCH  11  13
ENDBRANCH   4  11
BRANCH   1  20
ATOM     20  C   UNL     1      27.886   1.769  53.428  0.00  0.00    +0.000 C 
BRANCH  20  22
ATOM     21  O   UNL     1      28.461   0.641  55.453  0.00  0.00    +0.000 OA
ATOM     22  C   UNL     1      28.658   0.750  54.237  0.00  0.00    +0.000 C 
BRANCH  22  23
ATOM     23  C   UNL     1      29.740  -0.093  53.654  0.00  0.00    +0.000 C 
ATOM     24  C   UNL     1      29.741  -1.340  53.183  0.00  0.00    +0.000 C 
ATOM     25 CL   UNL     1      28.463  -2.464  53.155  0.00  0.00    +0.000 Cl
ENDBRANCH  22  23
ENDBRANCH  20  22
ENDBRANCH   1  20
TORSDOF 5
ENDMDL
