MODEL 1
REMARK VINA RESULT:    -8.929      0.000      0.000
REMARK INTER + INTRA:         -13.853
REMARK INTER:                 -12.584
REMARK INTRA:                  -1.269
REMARK UNBOUND:                -1.269
REMARK  Name = 
REMARK  7 active torsions:
REMARK  status: ('A' for Active; 'I' for Inactive)
REMARK    1  A    between atoms: C_6  and  O_7
REMARK    2  A    between atoms: O_7  and  C_8
REMARK    3  A    between atoms: C_8  and  C_9
REMARK    4  A    between atoms: C_12  and  O_13
REMARK    5  A    between atoms: O_13  and  C_14
REMARK    6  A    between atoms: C_14  and  C_15
REMARK    7  A    between atoms: C_24  and  C_25
REMARK                            x       y       z     vdW  Elec       q    Type
REMARK                         _______ _______ _______ _____ _____    ______ ____
ROOT
ATOM      1  C   UNL     1      24.120   1.565  52.745  0.00  0.00    +0.000 A 
ATOM      2  C   UNL     1      24.333   2.904  53.084  0.00  0.00    +0.000 A 
ATOM      3  C   UNL     1      23.887   3.932  52.238  0.00  0.00    +0.000 A 
ATOM      4  C   UNL     1      23.205   3.655  51.044  0.00  0.00    +0.000 A 
ATOM      5  C   UNL     1      22.889   2.319  50.762  0.00  0.00    +0.000 A 
ATOM      6 CL   UNL     1      21.877   1.826  49.450  0.00  0.00    +0.000 Cl
ATOM      7  C   UNL     1      23.363   1.288  51.597  0.00  0.00    +0.000 A 
ENDROOT
BRANCH   1   8
ATOM      8  C   UNL     1      24.787   0.443  53.521  0.00  0.00    +0.000 C 
BRANCH   8   9
ATOM      9  O   UNL     1      25.997   0.829  54.191  0.00  0.00    +0.000 OA
BRANCH   9  15
ATOM     10  N   UNL     1      30.694  -0.043  53.295  0.00  0.00    +0.000 N 
ATOM     11  C   UNL     1      29.360  -0.398  53.478  0.00  0.00    +0.000 A 
ATOM     12  N   UNL     1      29.118  -1.705  53.293  0.00  0.00    +0.000 NA
ATOM     13  C   UNL     1      27.845  -2.097  53.381  0.00  0.00    +0.000 A 
ATOM     14  N   UNL     1      26.803  -1.303  53.648  0.00  0.00    +0.000 NA
ATOM     15  C   UNL     1      27.068   0.010  53.837  0.00  0.00    +0.000 A 
ATOM     16  C   UNL     1      28.349   0.527  53.741  0.00  0.00    +0.000 A 
ATOM     17  H   UNL     1      31.367  -0.737  53.111  0.00  0.00    +0.000 HD
ATOM     18  H   UNL     1      30.963   0.902  53.348  0.00  0.00    +0.000 HD
BRANCH  16  19
ATOM     19  C   UNL     1      28.700   1.930  53.972  0.00  0.00    +0.000 C 
ATOM     20  O   UNL     1      29.331   2.352  54.926  0.00  0.00    +0.000 OA
ATOM     21  O   UNL     1      28.329   2.739  52.964  0.00  0.00    +0.000 OA
ENDBRANCH  16  19
ENDBRANCH   9  15
ENDBRANCH   8   9
ENDBRANCH   1   8
BRANCH   4  22
ATOM     22  O   UNL     1      22.897   4.780  50.319  0.00  0.00    +0.000 OA
BRANCH  22  23
ATOM     23  C   UNL     1      23.328   4.842  48.953  0.00  0.00    +0.000 C 
BRANCH  23  24
ATOM     24  C   UNL     1      24.798   5.214  48.833  0.00  0.00    +0.000 A 
ATOM     25  C   UNL     1      25.780   4.235  49.083  0.00  0.00    +0.000 A 
ATOM     26  C   UNL     1      27.140   4.535  48.977  0.00  0.00    +0.000 A 
ATOM     27  C   UNL     1      27.541   5.816  48.602  0.00  0.00    +0.000 A 
ATOM     28  C   UNL     1      26.580   6.786  48.313  0.00  0.00    +0.000 A 
ATOM     29  C   UNL     1      25.219   6.483  48.419  0.00  0.00    +0.000 A 
ENDBRANCH  23  24
ENDBRANCH  22  23
ENDBRANCH   4  22
TORSDOF 7
ENDMDL
MODEL 2
REMARK VINA RESULT:    -8.807      4.195      6.749
REMARK INTER + INTRA:         -13.680
REMARK INTER:                 -12.632
REMARK INTRA:                  -1.048
REMARK UNBOUND:                -1.269
REMARK  Name = 
REMARK  7 active torsions:
REMARK  status: ('A' for Active; 'I' for Inactive)
REMARK    1  A    between atoms: C_6  and  O_7
REMARK    2  A    between atoms: O_7  and  C_8
REMARK    3  A    between atoms: C_8  and  C_9
REMARK    4  A    between atoms: C_12  and  O_13
REMARK    5  A    between atoms: O_13  and  C_14
REMARK    6  A    between atoms: C_14  and  C_15
REMARK    7  A    between atoms: C_24  and  C_25
REMARK                            x       y       z     vdW  Elec       q    Type
REMARK                         _______ _______ _______ _____ _____    ______ ____
ROOT
ATOM      1  C   UNL     1      23.896   0.886  52.466  0.00  0.00    +0.000 A 
ATOM      2  C   UNL     1      23.039   1.408  51.492  0.00  0.00    +0.000 A 
ATOM      3  C   UNL     1      21.725   0.932  51.372  0.00  0.00    +0.000 A 
ATOM      4  C   UNL     1      21.223  -0.061  52.226  0.00  0.00    +0.000 A 
ATOM      5  C   UNL     1      22.042  -0.501  53.275  0.00  0.00    +0.000 A 
ATOM      6 CL   UNL     1      21.508  -1.558  54.535  0.00  0.00    +0.000 Cl
ATOM      7  C   UNL     1      23.371  -0.043  53.376  0.00  0.00    +0.000 A 
ENDROOT
BRANCH   1   8
ATOM      8  C   UNL     1      25.378   1.217  52.467  0.00  0.00    +0.000 C 
BRANCH   8   9
ATOM      9  O   UNL     1      26.040   0.944  53.712  0.00  0.00    +0.000 OA
BRANCH   9  15
ATOM     10  N   UNL     1      30.792  -0.053  53.504  0.00  0.00    +0.000 N 
ATOM     11  C   UNL     1      29.438  -0.375  53.516  0.00  0.00    +0.000 A 
ATOM     12  N   UNL     1      29.192  -1.684  53.349  0.00  0.00    +0.000 NA
ATOM     13  C   UNL     1      27.909  -2.047  53.277  0.00  0.00    +0.000 A 
ATOM     14  N   UNL     1      26.860  -1.224  53.367  0.00  0.00    +0.000 NA
ATOM     15  C   UNL     1      27.129   0.090  53.540  0.00  0.00    +0.000 A 
ATOM     16  C   UNL     1      28.424   0.579  53.602  0.00  0.00    +0.000 A 
ATOM     17  H   UNL     1      31.468  -0.766  53.442  0.00  0.00    +0.000 HD
ATOM     18  H   UNL     1      31.075   0.888  53.557  0.00  0.00    +0.000 HD
BRANCH  16  19
ATOM     19  C   UNL     1      28.774   1.983  53.825  0.00  0.00    +0.000 C 
ATOM     20  O   UNL     1      28.535   2.900  53.058  0.00  0.00    +0.000 OA
ATOM     21  O   UNL     1      29.328   2.203  55.030  0.00  0.00    +0.000 OA
ENDBRANCH  16  19
ENDBRANCH   9  15
ENDBRANCH   8   9
ENDBRANCH   1   8
BRANCH   4  22
ATOM     22  O   UNL     1      19.938  -0.442  51.925  0.00  0.00    +0.000 OA
BRANCH  22  23
ATOM     23  C   UNL     1      18.924  -0.238  52.918  0.00  0.00    +0.000 C 
BRANCH  23  24
ATOM     24  C   UNL     1      17.883  -1.348  52.910  0.00  0.00    +0.000 A 
ATOM     25  C   UNL     1      18.136  -2.535  53.625  0.00  0.00    +0.000 A 
ATOM     26  C   UNL     1      17.203  -3.575  53.646  0.00  0.00    +0.000 A 
ATOM     27  C   UNL     1      15.993  -3.437  52.968  0.00  0.00    +0.000 A 
ATOM     28  C   UNL     1      15.712  -2.251  52.288  0.00  0.00    +0.000 A 
ATOM     29  C   UNL     1      16.647  -1.212  52.267  0.00  0.00    +0.000 A 
ENDBRANCH  23  24
ENDBRANCH  22  23
ENDBRANCH   4  22
TORSDOF 7
ENDMDL
MODEL 3
REMARK VINA RESULT:    -8.764      2.906      3.561
REMARK INTER + INTRA:         -13.620
REMARK INTER:                 -12.086
REMARK INTRA:                  -1.533
REMARK UNBOUND:                -1.269
REMARK  Name = 
REMARK  7 active torsions:
REMARK  status: ('A' for Active; 'I' for Inactive)
REMARK    1  A    between atoms: C_6  and  O_7
REMARK    2  A    between atoms: O_7  and  C_8
REMARK    3  A    between atoms: C_8  and  C_9
REMARK    4  A    between atoms: C_12  and  O_13
REMARK    5  A    between atoms: O_13  and  C_14
REMARK    6  A    between atoms: C_14  and  C_15
REMARK    7  A    between atoms: C_24  and  C_25
REMARK                            x       y       z     vdW  Elec       q    Type
REMARK                         _______ _______ _______ _____ _____    ______ ____
ROOT
ATOM      1  C   UNL     1      23.779  -0.006  53.216  0.00  0.00    +0.000 A 
ATOM      2  C   UNL     1      23.788   1.365  52.940  0.00  0.00    +0.000 A 
ATOM      3  C   UNL     1      22.585   2.055  52.725  0.00  0.00    +0.000 A 
ATOM      4  C   UNL     1      21.344   1.405  52.794  0.00  0.00    +0.000 A 
ATOM      5  C   UNL     1      21.327   0.059  53.184  0.00  0.00    +0.000 A 
ATOM      6 CL   UNL     1      19.882  -0.828  53.520  0.00  0.00    +0.000 Cl
ATOM      7  C   UNL     1      22.537  -0.639  53.371  0.00  0.00    +0.000 A 
ENDROOT
BRANCH   1   8
ATOM      8  C   UNL     1      25.065  -0.813  53.225  0.00  0.00    +0.000 C 
BRANCH   8   9
ATOM      9  O   UNL     1      26.046  -0.368  52.276  0.00  0.00    +0.000 OA
BRANCH   9  15
ATOM     10  N   UNL     1      29.932   1.757  54.279  0.00  0.00    +0.000 N 
ATOM     11  C   UNL     1      29.170   0.673  53.854  0.00  0.00    +0.000 A 
ATOM     12  N   UNL     1      29.778  -0.512  54.016  0.00  0.00    +0.000 NA
ATOM     13  C   UNL     1      29.129  -1.586  53.559  0.00  0.00    +0.000 A 
ATOM     14  N   UNL     1      27.929  -1.578  52.969  0.00  0.00    +0.000 NA
ATOM     15  C   UNL     1      27.330  -0.375  52.820  0.00  0.00    +0.000 A 
ATOM     16  C   UNL     1      27.927   0.805  53.234  0.00  0.00    +0.000 A 
ATOM     17  H   UNL     1      30.804   1.607  54.711  0.00  0.00    +0.000 HD
ATOM     18  H   UNL     1      29.601   2.674  54.146  0.00  0.00    +0.000 HD
BRANCH  16  19
ATOM     19  C   UNL     1      27.311   2.130  53.132  0.00  0.00    +0.000 C 
ATOM     20  O   UNL     1      26.872   2.777  54.067  0.00  0.00    +0.000 OA
ATOM     21  O   UNL     1      27.344   2.632  51.885  0.00  0.00    +0.000 OA
ENDBRANCH  16  19
ENDBRANCH   9  15
ENDBRANCH   8   9
ENDBRANCH   1   8
BRANCH   4  22
ATOM     22  O   UNL     1      20.281   2.225  52.500  0.00  0.00    +0.000 OA
BRANCH  22  23
ATOM     23  C   UNL     1      19.641   2.069  51.226  0.00  0.00    +0.000 C 
BRANCH  23  24
ATOM     24  C   UNL     1      20.605   2.288  50.070  0.00  0.00    +0.000 A 
ATOM     25  C   UNL     1      21.003   1.188  49.286  0.00  0.00    +0.000 A 
ATOM     26  C   UNL     1      21.882   1.349  48.212  0.00  0.00    +0.000 A 
ATOM     27  C   UNL     1      22.363   2.618  47.892  0.00  0.00    +0.000 A 
ATOM     28  C   UNL     1      21.946   3.723  48.635  0.00  0.00    +0.000 A 
ATOM     29  C   UNL     1      21.067   3.560  49.710  0.00  0.00    +0.000 A 
ENDBRANCH  23  24
ENDBRANCH  22  23
ENDBRANCH   4  22
TORSDOF 7
ENDMDL
MODEL 4
REMARK VINA RESULT:    -8.762      3.748      6.329
REMARK INTER + INTRA:         -13.617
REMARK INTER:                 -12.420
REMARK INTRA:                  -1.197
REMARK UNBOUND:                -1.269
REMARK  Name = 
REMARK  7 active torsions:
REMARK  status: ('A' for Active; 'I' for Inactive)
REMARK    1  A    between atoms: C_6  and  O_7
REMARK    2  A    between atoms: O_7  and  C_8
REMARK    3  A    between atoms: C_8  and  C_9
REMARK    4  A    between atoms: C_12  and  O_13
REMARK    5  A    between atoms: O_13  and  C_14
REMARK    6  A    between atoms: C_14  and  C_15
REMARK    7  A    between atoms: C_24  and  C_25
REMARK                            x       y       z     vdW  Elec       q    Type
REMARK                         _______ _______ _______ _____ _____    ______ ____
ROOT
ATOM      1  C   UNL     1      23.955   1.994  51.745  0.00  0.00    +0.000 A 
ATOM      2  C   UNL     1      23.735   0.764  52.371  0.00  0.00    +0.000 A 
ATOM      3  C   UNL     1      22.501   0.484  52.977  0.00  0.00    +0.000 A 
ATOM      4  C   UNL     1      21.449   1.412  52.963  0.00  0.00    +0.000 A 
ATOM      5  C   UNL     1      21.628   2.597  52.236  0.00  0.00    +0.000 A 
ATOM      6 CL   UNL     1      20.369   3.745  51.941  0.00  0.00    +0.000 Cl
ATOM      7  C   UNL     1      22.877   2.889  51.653  0.00  0.00    +0.000 A 
ENDROOT
BRANCH   1   8
ATOM      8  C   UNL     1      25.343   2.406  51.286  0.00  0.00    +0.000 C 
BRANCH   8   9
ATOM      9  O   UNL     1      26.302   1.338  51.285  0.00  0.00    +0.000 OA
BRANCH   9  15
ATOM     10  N   UNL     1      28.555  -0.480  55.189  0.00  0.00    +0.000 N 
ATOM     11  C   UNL     1      28.296   0.487  54.222  0.00  0.00    +0.000 A 
ATOM     12  N   UNL     1      28.993   1.622  54.392  0.00  0.00    +0.000 NA
ATOM     13  C   UNL     1      28.734   2.617  53.539  0.00  0.00    +0.000 A 
ATOM     14  N   UNL     1      27.854   2.572  52.534  0.00  0.00    +0.000 NA
ATOM     15  C   UNL     1      27.165   1.419  52.378  0.00  0.00    +0.000 A 
ATOM     16  C   UNL     1      27.337   0.334  53.221  0.00  0.00    +0.000 A 
ATOM     17  H   UNL     1      29.244  -0.319  55.874  0.00  0.00    +0.000 HD
ATOM     18  H   UNL     1      28.049  -1.324  55.189  0.00  0.00    +0.000 HD
BRANCH  16  19
ATOM     19  C   UNL     1      26.648  -0.951  53.077  0.00  0.00    +0.000 C 
ATOM     20  O   UNL     1      26.756  -1.707  52.127  0.00  0.00    +0.000 OA
ATOM     21  O   UNL     1      25.920  -1.283  54.157  0.00  0.00    +0.000 OA
ENDBRANCH  16  19
ENDBRANCH   9  15
ENDBRANCH   8   9
ENDBRANCH   1   8
BRANCH   4  22
ATOM     22  O   UNL     1      20.339   0.990  53.653  0.00  0.00    +0.000 OA
BRANCH  22  23
ATOM     23  C   UNL     1      19.949  -0.384  53.527  0.00  0.00    +0.000 C 
BRANCH  23  24
ATOM     24  C   UNL     1      18.671  -0.545  52.717  0.00  0.00    +0.000 A 
ATOM     25  C   UNL     1      18.580   0.057  51.447  0.00  0.00    +0.000 A 
ATOM     26  C   UNL     1      17.426  -0.072  50.670  0.00  0.00    +0.000 A 
ATOM     27  C   UNL     1      16.350  -0.822  51.143  0.00  0.00    +0.000 A 
ATOM     28  C   UNL     1      16.441  -1.456  52.382  0.00  0.00    +0.000 A 
ATOM     29  C   UNL     1      17.596  -1.326  53.159  0.00  0.00    +0.000 A 
ENDBRANCH  23  24
ENDBRANCH  22  23
ENDBRANCH   4  22
TORSDOF 7
ENDMDL
MODEL 5
REMARK VINA RESULT:    -8.657      4.639      7.256
REMARK INTER + INTRA:         -13.469
REMARK INTER:                 -12.637
REMARK INTRA:                  -0.831
REMARK UNBOUND:                -1.269
REMARK  Name = 
REMARK  7 active torsions:
REMARK  status: ('A' for Active; 'I' for Inactive)
REMARK    1  A    between atoms: C_6  and  O_7
REMARK    2  A    between atoms: O_7  and  C_8
REMARK    3  A    between atoms: C_8  and  C_9
REMARK    4  A    between atoms: C_12  and  O_13
REMARK    5  A    between atoms: O_13  and  C_14
REMARK    6  A    between atoms: C_14  and  C_15
REMARK    7  A    between atoms: C_24  and  C_25
REMARK                            x       y       z     vdW  Elec       q    Type
REMARK                         _______ _______ _______ _____ _____    ______ ____
ROOT
ATOM      1  C   UNL     1      23.162   0.379  53.415  0.00  0.00    +0.000 A 
ATOM      2  C   UNL     1      22.709  -0.825  53.961  0.00  0.00    +0.000 A 
ATOM      3  C   UNL     1      21.335  -1.088  54.064  0.00  0.00    +0.000 A 
ATOM      4  C   UNL     1      20.377  -0.168  53.613  0.00  0.00    +0.000 A 
ATOM      5  C   UNL     1      20.829   0.987  52.960  0.00  0.00    +0.000 A 
ATOM      6 CL   UNL     1      19.788   2.113  52.163  0.00  0.00    +0.000 Cl
ATOM      7  C   UNL     1      22.209   1.262  52.884  0.00  0.00    +0.000 A 
ENDROOT
BRANCH   1   8
ATOM      8  C   UNL     1      24.624   0.780  53.501  0.00  0.00    +0.000 C 
BRANCH   8   9
ATOM      9  O   UNL     1      25.392   0.460  52.330  0.00  0.00    +0.000 OA
BRANCH   9  15
ATOM     10  N   UNL     1      30.078   0.627  53.609  0.00  0.00    +0.000 N 
ATOM     11  C   UNL     1      28.866  -0.007  53.348  0.00  0.00    +0.000 A 
ATOM     12  N   UNL     1      28.923  -1.344  53.448  0.00  0.00    +0.000 NA
ATOM     13  C   UNL     1      27.811  -2.015  53.137  0.00  0.00    +0.000 A 
ATOM     14  N   UNL     1      26.654  -1.469  52.749  0.00  0.00    +0.000 NA
ATOM     15  C   UNL     1      26.616  -0.120  52.659  0.00  0.00    +0.000 A 
ATOM     16  C   UNL     1      27.720   0.671  52.933  0.00  0.00    +0.000 A 
ATOM     17  H   UNL     1      30.857   0.100  53.900  0.00  0.00    +0.000 HD
ATOM     18  H   UNL     1      30.156   1.603  53.503  0.00  0.00    +0.000 HD
BRANCH  16  19
ATOM     19  C   UNL     1      27.725   2.135  52.890  0.00  0.00    +0.000 C 
ATOM     20  O   UNL     1      27.482   2.813  51.907  0.00  0.00    +0.000 OA
ATOM     21  O   UNL     1      27.947   2.697  54.092  0.00  0.00    +0.000 OA
ENDBRANCH  16  19
ENDBRANCH   9  15
ENDBRANCH   8   9
ENDBRANCH   1   8
BRANCH   4  22
ATOM     22  O   UNL     1      19.083  -0.568  53.847  0.00  0.00    +0.000 OA
BRANCH  22  23
ATOM     23  C   UNL     1      18.215  -0.740  52.718  0.00  0.00    +0.000 C 
BRANCH  23  24
ATOM     24  C   UNL     1      17.319  -1.960  52.865  0.00  0.00    +0.000 A 
ATOM     25  C   UNL     1      16.039  -1.949  52.278  0.00  0.00    +0.000 A 
ATOM     26  C   UNL     1      15.188  -3.053  52.385  0.00  0.00    +0.000 A 
ATOM     27  C   UNL     1      15.612  -4.193  53.066  0.00  0.00    +0.000 A 
ATOM     28  C   UNL     1      16.893  -4.233  53.619  0.00  0.00    +0.000 A 
ATOM     29  C   UNL     1      17.742  -3.128  53.511  0.00  0.00    +0.000 A 
ENDBRANCH  23  24
ENDBRANCH  22  23
ENDBRANCH   4  22
TORSDOF 7
ENDMDL
MODEL 6
REMARK VINA RESULT:    -8.493      3.957      6.236
REMARK INTER + INTRA:         -13.237
REMARK INTER:                 -12.026
REMARK INTRA:                  -1.212
REMARK UNBOUND:                -1.269
REMARK  Name = 
REMARK  7 active torsions:
REMARK  status: ('A' for Active; 'I' for Inactive)
REMARK    1  A    between atoms: C_6  and  O_7
REMARK    2  A    between atoms: O_7  and  C_8
REMARK    3  A    between atoms: C_8  and  C_9
REMARK    4  A    between atoms: C_12  and  O_13
REMARK    5  A    between atoms: O_13  and  C_14
REMARK    6  A    between atoms: C_14  and  C_15
REMARK    7  A    between atoms: C_24  and  C_25
REMARK                            x       y       z     vdW  Elec       q    Type
REMARK                         _______ _______ _______ _____ _____    ______ ____
ROOT
ATOM      1  C   UNL     1      23.773  -0.334  53.378  0.00  0.00    +0.000 A 
ATOM      2  C   UNL     1      23.547   0.865  52.696  0.00  0.00    +0.000 A 
ATOM      3  C   UNL     1      22.243   1.258  52.361  0.00  0.00    +0.000 A 
ATOM      4  C   UNL     1      21.129   0.479  52.709  0.00  0.00    +0.000 A 
ATOM      5  C   UNL     1      21.345  -0.662  53.493  0.00  0.00    +0.000 A 
ATOM      6 CL   UNL     1      20.074  -1.612  54.180  0.00  0.00    +0.000 Cl
ATOM      7  C   UNL     1      22.657  -1.071  53.803  0.00  0.00    +0.000 A 
ENDROOT
BRANCH   1   8
ATOM      8  C   UNL     1      25.176  -0.889  53.548  0.00  0.00    +0.000 C 
BRANCH   8   9
ATOM      9  O   UNL     1      26.076  -0.552  52.481  0.00  0.00    +0.000 OA
BRANCH   9  15
ATOM     10  N   UNL     1      29.721   2.193  54.154  0.00  0.00    +0.000 N 
ATOM     11  C   UNL     1      29.099   0.993  53.822  0.00  0.00    +0.000 A 
ATOM     12  N   UNL     1      29.879  -0.086  53.994  0.00  0.00    +0.000 NA
ATOM     13  C   UNL     1      29.366  -1.261  53.622  0.00  0.00    +0.000 A 
ATOM     14  N   UNL     1      28.146  -1.451  53.107  0.00  0.00    +0.000 NA
ATOM     15  C   UNL     1      27.375  -0.352  52.945  0.00  0.00    +0.000 A 
ATOM     16  C   UNL     1      27.818   0.919  53.273  0.00  0.00    +0.000 A 
ATOM     17  H   UNL     1      30.627   2.188  54.538  0.00  0.00    +0.000 HD
ATOM     18  H   UNL     1      29.255   3.047  54.005  0.00  0.00    +0.000 HD
BRANCH  16  19
ATOM     19  C   UNL     1      27.015   2.137  53.156  0.00  0.00    +0.000 C 
ATOM     20  O   UNL     1      26.732   2.698  52.111  0.00  0.00    +0.000 OA
ATOM     21  O   UNL     1      26.522   2.559  54.333  0.00  0.00    +0.000 OA
ENDBRANCH  16  19
ENDBRANCH   9  15
ENDBRANCH   8   9
ENDBRANCH   1   8
BRANCH   4  22
ATOM     22  O   UNL     1      19.940   0.991  52.249  0.00  0.00    +0.000 OA
BRANCH  22  23
ATOM     23  C   UNL     1      19.465   0.551  50.970  0.00  0.00    +0.000 C 
BRANCH  23  24
ATOM     24  C   UNL     1      18.078  -0.069  51.056  0.00  0.00    +0.000 A 
ATOM     25  C   UNL     1      17.223  -0.003  49.939  0.00  0.00    +0.000 A 
ATOM     26  C   UNL     1      15.945  -0.565  49.976  0.00  0.00    +0.000 A 
ATOM     27  C   UNL     1      15.507  -1.219  51.127  0.00  0.00    +0.000 A 
ATOM     28  C   UNL     1      16.357  -1.325  52.228  0.00  0.00    +0.000 A 
ATOM     29  C   UNL     1      17.636  -0.762  52.189  0.00  0.00    +0.000 A 
ENDBRANCH  23  24
ENDBRANCH  22  23
ENDBRANCH   4  22
TORSDOF 7
ENDMDL
MODEL 7
REMARK VINA RESULT:    -8.426      4.225      7.463
REMARK INTER + INTRA:         -13.143
REMARK INTER:                 -11.872
REMARK INTRA:                  -1.272
REMARK UNBOUND:                -1.269
REMARK  Name = 
REMARK  7 active torsions:
REMARK  status: ('A' for Active; 'I' for Inactive)
REMARK    1  A    between atoms: C_6  and  O_7
REMARK    2  A    between atoms: O_7  and  C_8
REMARK    3  A    between atoms: C_8  and  C_9
REMARK    4  A    between atoms: C_12  and  O_13
REMARK    5  A    between atoms: O_13  and  C_14
REMARK    6  A    between atoms: C_14  and  C_15
REMARK    7  A    between atoms: C_24  and  C_25
REMARK                            x       y       z     vdW  Elec       q    Type
REMARK                         _______ _______ _______ _____ _____    ______ ____
ROOT
ATOM      1  C   UNL     1      23.144   2.312  51.461  0.00  0.00    +0.000 A 
ATOM      2  C   UNL     1      23.666   2.096  52.740  0.00  0.00    +0.000 A 
ATOM      3  C   UNL     1      25.048   2.185  52.969  0.00  0.00    +0.000 A 
ATOM      4  C   UNL     1      25.943   2.504  51.937  0.00  0.00    +0.000 A 
ATOM      5  C   UNL     1      25.411   2.835  50.684  0.00  0.00    +0.000 A 
ATOM      6 CL   UNL     1      26.352   3.451  49.370  0.00  0.00    +0.000 Cl
ATOM      7  C   UNL     1      24.027   2.717  50.448  0.00  0.00    +0.000 A 
ENDROOT
BRANCH   1   8
ATOM      8  C   UNL     1      21.693   2.001  51.143  0.00  0.00    +0.000 C 
BRANCH   8   9
ATOM      9  O   UNL     1      20.801   2.152  52.258  0.00  0.00    +0.000 OA
BRANCH   9  15
ATOM     10  N   UNL     1      18.759  -1.976  53.812  0.00  0.00    +0.000 N 
ATOM     11  C   UNL     1      18.805  -0.792  53.082  0.00  0.00    +0.000 A 
ATOM     12  N   UNL     1      17.732  -0.597  52.300  0.00  0.00    +0.000 NA
ATOM     13  C   UNL     1      17.750   0.486  51.517  0.00  0.00    +0.000 A 
ATOM     14  N   UNL     1      18.735   1.388  51.458  0.00  0.00    +0.000 NA
ATOM     15  C   UNL     1      19.805   1.176  52.257  0.00  0.00    +0.000 A 
ATOM     16  C   UNL     1      19.901   0.071  53.088  0.00  0.00    +0.000 A 
ATOM     17  H   UNL     1      17.959  -2.549  53.771  0.00  0.00    +0.000 HD
ATOM     18  H   UNL     1      19.526  -2.241  54.369  0.00  0.00    +0.000 HD
BRANCH  16  19
ATOM     19  C   UNL     1      21.016  -0.189  54.001  0.00  0.00    +0.000 C 
ATOM     20  O   UNL     1      21.089   0.198  55.155  0.00  0.00    +0.000 OA
ATOM     21  O   UNL     1      21.955  -0.993  53.471  0.00  0.00    +0.000 OA
ENDBRANCH  16  19
ENDBRANCH   9  15
ENDBRANCH   8   9
ENDBRANCH   1   8
BRANCH   4  22
ATOM     22  O   UNL     1      27.259   2.489  52.333  0.00  0.00    +0.000 OA
BRANCH  22  23
ATOM     23  C   UNL     1      27.571   1.938  53.620  0.00  0.00    +0.000 C 
BRANCH  23  24
ATOM     24  C   UNL     1      28.179   0.548  53.516  0.00  0.00    +0.000 A 
ATOM     25  C   UNL     1      27.380  -0.522  53.066  0.00  0.00    +0.000 A 
ATOM     26  C   UNL     1      27.903  -1.813  52.952  0.00  0.00    +0.000 A 
ATOM     27  C   UNL     1      29.240  -2.051  53.267  0.00  0.00    +0.000 A 
ATOM     28  C   UNL     1      30.054  -0.994  53.676  0.00  0.00    +0.000 A 
ATOM     29  C   UNL     1      29.528   0.297  53.791  0.00  0.00    +0.000 A 
ENDBRANCH  23  24
ENDBRANCH  22  23
ENDBRANCH   4  22
TORSDOF 7
ENDMDL
MODEL 8
REMARK VINA RESULT:    -8.179      2.411      3.239
REMARK INTER + INTRA:         -12.795
REMARK INTER:                 -11.538
REMARK INTRA:                  -1.258
REMARK UNBOUND:                -1.269
REMARK  Name = 
REMARK  7 active torsions:
REMARK  status: ('A' for Active; 'I' for Inactive)
REMARK    1  A    between atoms: C_6  and  O_7
REMARK    2  A    between atoms: O_7  and  C_8
REMARK    3  A    between atoms: C_8  and  C_9
REMARK    4  A    between atoms: C_12  and  O_13
REMARK    5  A    between atoms: O_13  and  C_14
REMARK    6  A    between atoms: C_14  and  C_15
REMARK    7  A    between atoms: C_24  and  C_25
REMARK                            x       y       z     vdW  Elec       q    Type
REMARK                         _______ _______ _______ _____ _____    ______ ____
ROOT
ATOM      1  C   UNL     1      24.836   2.304  51.847  0.00  0.00    +0.000 A 
ATOM      2  C   UNL     1      23.799   3.222  52.039  0.00  0.00    +0.000 A 
ATOM      3  C   UNL     1      23.826   4.470  51.396  0.00  0.00    +0.000 A 
ATOM      4  C   UNL     1      24.874   4.830  50.537  0.00  0.00    +0.000 A 
ATOM      5  C   UNL     1      25.852   3.868  50.253  0.00  0.00    +0.000 A 
ATOM      6 CL   UNL     1      27.088   4.073  49.061  0.00  0.00    +0.000 Cl
ATOM      7  C   UNL     1      25.840   2.627  50.921  0.00  0.00    +0.000 A 
ENDROOT
BRANCH   1   8
ATOM      8  C   UNL     1      24.945   1.053  52.701  0.00  0.00    +0.000 C 
BRANCH   8   9
ATOM      9  O   UNL     1      25.935   1.133  53.738  0.00  0.00    +0.000 OA
BRANCH   9  15
ATOM     10  N   UNL     1      30.615  -0.153  53.496  0.00  0.00    +0.000 N 
ATOM     11  C   UNL     1      29.244  -0.390  53.497  0.00  0.00    +0.000 A 
ATOM     12  N   UNL     1      28.916  -1.674  53.284  0.00  0.00    +0.000 NA
ATOM     13  C   UNL     1      27.613  -1.953  53.199  0.00  0.00    +0.000 A 
ATOM     14  N   UNL     1      26.617  -1.069  53.318  0.00  0.00    +0.000 NA
ATOM     15  C   UNL     1      26.968   0.219  53.536  0.00  0.00    +0.000 A 
ATOM     16  C   UNL     1      28.291   0.623  53.615  0.00  0.00    +0.000 A 
ATOM     17  H   UNL     1      31.245  -0.905  53.409  0.00  0.00    +0.000 HD
ATOM     18  H   UNL     1      30.957   0.766  53.582  0.00  0.00    +0.000 HD
BRANCH  16  19
ATOM     19  C   UNL     1      28.728   1.994  53.887  0.00  0.00    +0.000 C 
ATOM     20  O   UNL     1      29.270   2.372  54.912  0.00  0.00    +0.000 OA
ATOM     21  O   UNL     1      28.554   2.820  52.841  0.00  0.00    +0.000 OA
ENDBRANCH  16  19
ENDBRANCH   9  15
ENDBRANCH   8   9
ENDBRANCH   1   8
BRANCH   4  22
ATOM     22  O   UNL     1      24.761   6.108  50.044  0.00  0.00    +0.000 OA
BRANCH  22  23
ATOM     23  C   UNL     1      24.245   7.123  50.915  0.00  0.00    +0.000 C 
BRANCH  23  24
ATOM     24  C   UNL     1      23.018   7.809  50.333  0.00  0.00    +0.000 A 
ATOM     25  C   UNL     1      23.185   8.781  49.327  0.00  0.00    +0.000 A 
ATOM     26  C   UNL     1      22.084   9.430  48.762  0.00  0.00    +0.000 A 
ATOM     27  C   UNL     1      20.795   9.102  49.182  0.00  0.00    +0.000 A 
ATOM     28  C   UNL     1      20.612   8.114  50.149  0.00  0.00    +0.000 A 
ATOM     29  C   UNL     1      21.716   7.466  50.713  0.00  0.00    +0.000 A 
ENDBRANCH  23  24
ENDBRANCH  22  23
ENDBRANCH   4  22
TORSDOF 7
ENDMDL
MODEL 9
REMARK VINA RESULT:    -8.158      3.082      3.850
REMARK INTER + INTRA:         -12.765
REMARK INTER:                 -11.347
REMARK INTRA:                  -1.418
REMARK UNBOUND:                -1.269
REMARK  Name = 
REMARK  7 active torsions:
REMARK  status: ('A' for Active; 'I' for Inactive)
REMARK    1  A    between atoms: C_6  and  O_7
REMARK    2  A    between atoms: O_7  and  C_8
REMARK    3  A    between atoms: C_8  and  C_9
REMARK    4  A    between atoms: C_12  and  O_13
REMARK    5  A    between atoms: O_13  and  C_14
REMARK    6  A    between atoms: C_14  and  C_15
REMARK    7  A    between atoms: C_24  and  C_25
REMARK                            x       y       z     vdW  Elec       q    Type
REMARK                         _______ _______ _______ _____ _____    ______ ____
ROOT
ATOM      1  C   UNL     1      23.617   0.182  53.098  0.00  0.00    +0.000 A 
ATOM      2  C   UNL     1      22.360  -0.401  53.279  0.00  0.00    +0.000 A 
ATOM      3  C   UNL     1      21.192   0.363  53.129  0.00  0.00    +0.000 A 
ATOM      4  C   UNL     1      21.244   1.720  52.779  0.00  0.00    +0.000 A 
ATOM      5  C   UNL     1      22.496   2.276  52.483  0.00  0.00    +0.000 A 
ATOM      6 CL   UNL     1      22.717   3.864  51.837  0.00  0.00    +0.000 Cl
ATOM      7  C   UNL     1      23.669   1.515  52.663  0.00  0.00    +0.000 A 
ENDROOT
BRANCH   1   8
ATOM      8  C   UNL     1      24.888  -0.558  53.475  0.00  0.00    +0.000 C 
BRANCH   8   9
ATOM      9  O   UNL     1      26.001   0.300  53.772  0.00  0.00    +0.000 OA
BRANCH   9  15
ATOM     10  N   UNL     1      30.840   0.193  53.334  0.00  0.00    +0.000 N 
ATOM     11  C   UNL     1      29.571  -0.373  53.416  0.00  0.00    +0.000 A 
ATOM     12  N   UNL     1      29.564  -1.707  53.270  0.00  0.00    +0.000 NA
ATOM     13  C   UNL     1      28.368  -2.302  53.264  0.00  0.00    +0.000 A 
ATOM     14  N   UNL     1      27.190  -1.685  53.402  0.00  0.00    +0.000 NA
ATOM     15  C   UNL     1      27.220  -0.341  53.552  0.00  0.00    +0.000 A 
ATOM     16  C   UNL     1      28.403   0.378  53.546  0.00  0.00    +0.000 A 
ATOM     17  H   UNL     1      31.632  -0.385  53.243  0.00  0.00    +0.000 HD
ATOM     18  H   UNL     1      30.947   1.171  53.367  0.00  0.00    +0.000 HD
BRANCH  16  19
ATOM     19  C   UNL     1      28.498   1.827  53.742  0.00  0.00    +0.000 C 
ATOM     20  O   UNL     1      28.996   2.377  54.709  0.00  0.00    +0.000 OA
ATOM     21  O   UNL     1      28.049   2.532  52.688  0.00  0.00    +0.000 OA
ENDBRANCH  16  19
ENDBRANCH   9  15
ENDBRANCH   8   9
ENDBRANCH   1   8
BRANCH   4  22
ATOM     22  O   UNL     1      20.009   2.319  52.733  0.00  0.00    +0.000 OA
BRANCH  22  23
ATOM     23  C   UNL     1      19.140   1.992  51.640  0.00  0.00    +0.000 C 
BRANCH  23  24
ATOM     24  C   UNL     1      19.698   2.462  50.305  0.00  0.00    +0.000 A 
ATOM     25  C   UNL     1      19.623   3.828  49.969  0.00  0.00    +0.000 A 
ATOM     26  C   UNL     1      20.128   4.300  48.755  0.00  0.00    +0.000 A 
ATOM     27  C   UNL     1      20.734   3.416  47.864  0.00  0.00    +0.000 A 
ATOM     28  C   UNL     1      20.851   2.066  48.200  0.00  0.00    +0.000 A 
ATOM     29  C   UNL     1      20.344   1.596  49.415  0.00  0.00    +0.000 A 
ENDBRANCH  23  24
ENDBRANCH  22  23
ENDBRANCH   4  22
TORSDOF 7
ENDMDL
