MODEL 1
REMARK VINA RESULT:    -8.956      0.000      0.000
REMARK INTER + INTRA:         -13.957
REMARK INTER:                 -12.097
REMARK INTRA:                  -1.860
REMARK UNBOUND:                -1.860
REMARK  Name = 
REMARK  9 active torsions:
REMARK  status: ('A' for Active; 'I' for Inactive)
REMARK    1  A    between atoms: C_1  and  O_2
REMARK    2  A    between atoms: O_2  and  C_3
REMARK    3  A    between atoms: C_6  and  N_7
REMARK    4  A    between atoms: N_7  and  C_8
REMARK    5  A    between atoms: C_22  and  O_23
REMARK    6  A    between atoms: O_23  and  C_24
REMARK    7  A    between atoms: C_24  and  C_25
REMARK    8  A    between atoms: N_27  and  C_28
REMARK    9  A    between atoms: N_32  and  C_33
REMARK                            x       y       z     vdW  Elec       q    Type
REMARK                         _______ _______ _______ _____ _____    ______ ____
ROOT
ATOM      1  C   UNL     1      24.362   3.235  49.742  0.00  0.00    +0.000 A 
ATOM      2  C   UNL     1      24.377   2.496  50.917  0.00  0.00    +0.000 A 
ATOM      3  C   UNL     1      23.330   1.616  51.229  0.00  0.00    +0.000 A 
ATOM      4  C   UNL     1      23.315   0.819  52.382  0.00  0.00    +0.000 A 
ATOM      5  N   UNL     1      22.405  -0.141  52.575  0.00  0.00    +0.000 NA
ATOM      6  C   UNL     1      21.467  -0.267  51.624  0.00  0.00    +0.000 A 
ATOM      7  N   UNL     1      21.352   0.489  50.517  0.00  0.00    +0.000 NA
ATOM      8  C   UNL     1      22.281   1.431  50.337  0.00  0.00    +0.000 A 
ATOM      9  C   UNL     1      22.206   2.296  49.252  0.00  0.00    +0.000 A 
ATOM     10  C   UNL     1      23.165   3.289  49.019  0.00  0.00    +0.000 A 
ENDROOT
BRANCH   1  12
ATOM     11  C   UNL     1      26.709   3.475  49.935  0.00  0.00    +0.000 C 
ATOM     12  O   UNL     1      25.488   3.873  49.281  0.00  0.00    +0.000 OA
ENDBRANCH   1  12
BRANCH   4  13
ATOM     13  N   UNL     1      24.294   1.087  53.369  0.00  0.00    +0.000 N 
ATOM     14  H   UNL     1      24.029   1.699  54.093  0.00  0.00    +0.000 HD
BRANCH  13  15
ATOM     15  C   UNL     1      25.600   0.578  53.431  0.00  0.00    +0.000 A 
ATOM     16  C   UNL     1      25.883  -0.731  53.032  0.00  0.00    +0.000 A 
ATOM     17  C   UNL     1      27.196  -1.194  53.004  0.00  0.00    +0.000 A 
ATOM     18  C   UNL     1      28.247  -0.354  53.388  0.00  0.00    +0.000 A 
ATOM     19 CL   UNL     1      29.845  -1.010  53.337  0.00  0.00    +0.000 Cl
ATOM     20  C   UNL     1      27.990   0.967  53.759  0.00  0.00    +0.000 A 
ATOM     21 CL   UNL     1      29.248   2.065  54.207  0.00  0.00    +0.000 Cl
ATOM     22  C   UNL     1      26.669   1.421  53.763  0.00  0.00    +0.000 A 
ATOM     23  F   UNL     1      26.395   2.697  54.093  0.00  0.00    +0.000 F 
ENDBRANCH  13  15
ENDBRANCH   4  13
BRANCH  10  24
ATOM     24  O   UNL     1      22.980   4.341  48.164  0.00  0.00    +0.000 OA
BRANCH  24  25
ATOM     25  C   UNL     1      21.669   4.916  48.058  0.00  0.00    +0.000 C 
BRANCH  25  26
ATOM     26  C   UNL     1      21.154   5.821  49.220  0.00  0.00    +0.000 C 
ATOM     27  C   UNL     1      22.244   6.680  49.897  0.00  0.00    +0.000 C 
ATOM     28  N   UNL     1      22.658   6.327  51.242  0.00  0.00    +0.000 N 
ATOM     29  C   UNL     1      24.033   6.618  51.595  0.00  0.00    +0.000 C 
ATOM     30  C   UNL     1      22.122   5.126  51.869  0.00  0.00    +0.000 C 
ATOM     31  C   UNL     1      20.725   4.709  51.414  0.00  0.00    +0.000 C 
ATOM     32  O   UNL     1      20.053   3.953  52.121  0.00  0.00    +0.000 OA
ATOM     33  N   UNL     1      20.263   5.175  50.194  0.00  0.00    +0.000 N 
ATOM     34  C   UNL     1      18.897   4.860  49.808  0.00  0.00    +0.000 C 
ATOM     35  H   UNL     1      22.103   7.040  51.717  0.00  0.00    +0.000 HD
ENDBRANCH  25  26
ENDBRANCH  24  25
ENDBRANCH  10  24
TORSDOF 6
ENDMDL
MODEL 2
REMARK VINA RESULT:    -8.752      1.183      1.764
REMARK INTER + INTRA:         -13.682
REMARK INTER:                 -11.992
REMARK INTRA:                  -1.690
REMARK UNBOUND:                -1.860
REMARK  Name = 
REMARK  9 active torsions:
REMARK  status: ('A' for Active; 'I' for Inactive)
REMARK    1  A    between atoms: C_1  and  O_2
REMARK    2  A    between atoms: O_2  and  C_3
REMARK    3  A    between atoms: C_6  and  N_7
REMARK    4  A    between atoms: N_7  and  C_8
REMARK    5  A    between atoms: C_22  and  O_23
REMARK    6  A    between atoms: O_23  and  C_24
REMARK    7  A    between atoms: C_24  and  C_25
REMARK    8  A    between atoms: N_27  and  C_28
REMARK    9  A    between atoms: N_32  and  C_33
REMARK                            x       y       z     vdW  Elec       q    Type
REMARK                         _______ _______ _______ _____ _____    ______ ____
ROOT
ATOM      1  C   UNL     1      24.385   3.273  49.797  0.00  0.00    +0.000 A 
ATOM      2  C   UNL     1      24.360   2.522  50.963  0.00  0.00    +0.000 A 
ATOM      3  C   UNL     1      23.278   1.676  51.253  0.00  0.00    +0.000 A 
ATOM      4  C   UNL     1      23.221   0.868  52.398  0.00  0.00    +0.000 A 
ATOM      5  N   UNL     1      22.274  -0.061  52.569  0.00  0.00    +0.000 NA
ATOM      6  C   UNL     1      21.345  -0.143  51.606  0.00  0.00    +0.000 A 
ATOM      7  N   UNL     1      21.271   0.627  50.505  0.00  0.00    +0.000 NA
ATOM      8  C   UNL     1      22.234   1.538  50.347  0.00  0.00    +0.000 A 
ATOM      9  C   UNL     1      22.203   2.416  49.270  0.00  0.00    +0.000 A 
ATOM     10  C   UNL     1      23.200   3.377  49.060  0.00  0.00    +0.000 A 
ENDROOT
BRANCH   1  12
ATOM     11  C   UNL     1      26.708   3.568  50.138  0.00  0.00    +0.000 C 
ATOM     12  O   UNL     1      25.538   3.876  49.356  0.00  0.00    +0.000 OA
ENDBRANCH   1  12
BRANCH   4  13
ATOM     13  N   UNL     1      24.196   1.091  53.399  0.00  0.00    +0.000 N 
ATOM     14  H   UNL     1      23.935   1.686  54.139  0.00  0.00    +0.000 HD
BRANCH  13  15
ATOM     15  C   UNL     1      25.493   0.560  53.455  0.00  0.00    +0.000 A 
ATOM     16  C   UNL     1      25.750  -0.755  53.057  0.00  0.00    +0.000 A 
ATOM     17  C   UNL     1      27.055  -1.242  53.023  0.00  0.00    +0.000 A 
ATOM     18  C   UNL     1      28.123  -0.420  53.401  0.00  0.00    +0.000 A 
ATOM     19 CL   UNL     1      29.708  -1.105  53.344  0.00  0.00    +0.000 Cl
ATOM     20  C   UNL     1      27.891   0.906  53.772  0.00  0.00    +0.000 A 
ATOM     21 CL   UNL     1      29.171   1.981  54.213  0.00  0.00    +0.000 Cl
ATOM     22  C   UNL     1      26.578   1.383  53.782  0.00  0.00    +0.000 A 
ATOM     23  F   UNL     1      26.329   2.664  54.112  0.00  0.00    +0.000 F 
ENDBRANCH  13  15
ENDBRANCH   4  13
BRANCH  10  24
ATOM     24  O   UNL     1      23.062   4.444  48.214  0.00  0.00    +0.000 OA
BRANCH  24  25
ATOM     25  C   UNL     1      21.887   5.260  48.324  0.00  0.00    +0.000 C 
BRANCH  25  26
ATOM     26  C   UNL     1      21.915   6.483  49.294  0.00  0.00    +0.000 C 
ATOM     27  C   UNL     1      22.424   7.794  48.659  0.00  0.00    +0.000 C 
ATOM     28  N   UNL     1      23.727   8.290  49.061  0.00  0.00    +0.000 N 
ATOM     29  C   UNL     1      24.473   9.034  48.065  0.00  0.00    +0.000 C 
ATOM     30  C   UNL     1      24.557   7.494  49.957  0.00  0.00    +0.000 C 
ATOM     31  C   UNL     1      23.801   6.588  50.927  0.00  0.00    +0.000 C 
ATOM     32  O   UNL     1      24.370   6.168  51.939  0.00  0.00    +0.000 OA
ATOM     33  N   UNL     1      22.495   6.239  50.623  0.00  0.00    +0.000 N 
ATOM     34  C   UNL     1      21.745   5.460  51.595  0.00  0.00    +0.000 C 
ATOM     35  H   UNL     1      23.380   8.991  49.715  0.00  0.00    +0.000 HD
ENDBRANCH  25  26
ENDBRANCH  24  25
ENDBRANCH  10  24
TORSDOF 6
ENDMDL
MODEL 3
REMARK VINA RESULT:    -8.709      3.765      5.420
REMARK INTER + INTRA:         -13.624
REMARK INTER:                 -12.821
REMARK INTRA:                  -0.802
REMARK UNBOUND:                -1.860
REMARK  Name = 
REMARK  9 active torsions:
REMARK  status: ('A' for Active; 'I' for Inactive)
REMARK    1  A    between atoms: C_1  and  O_2
REMARK    2  A    between atoms: O_2  and  C_3
REMARK    3  A    between atoms: C_6  and  N_7
REMARK    4  A    between atoms: N_7  and  C_8
REMARK    5  A    between atoms: C_22  and  O_23
REMARK    6  A    between atoms: O_23  and  C_24
REMARK    7  A    between atoms: C_24  and  C_25
REMARK    8  A    between atoms: N_27  and  C_28
REMARK    9  A    between atoms: N_32  and  C_33
REMARK                            x       y       z     vdW  Elec       q    Type
REMARK                         _______ _______ _______ _____ _____    ______ ____
ROOT
ATOM      1  C   UNL     1      20.605   0.374  51.375  0.00  0.00    +0.000 A 
ATOM      2  C   UNL     1      21.907   0.275  51.845  0.00  0.00    +0.000 A 
ATOM      3  C   UNL     1      22.177  -0.275  53.107  0.00  0.00    +0.000 A 
ATOM      4  C   UNL     1      23.475  -0.433  53.613  0.00  0.00    +0.000 A 
ATOM      5  N   UNL     1      23.727  -1.120  54.732  0.00  0.00    +0.000 NA
ATOM      6  C   UNL     1      22.658  -1.607  55.379  0.00  0.00    +0.000 A 
ATOM      7  N   UNL     1      21.372  -1.455  55.017  0.00  0.00    +0.000 NA
ATOM      8  C   UNL     1      21.145  -0.779  53.888  0.00  0.00    +0.000 A 
ATOM      9  C   UNL     1      19.845  -0.522  53.470  0.00  0.00    +0.000 A 
ATOM     10  C   UNL     1      19.563   0.171  52.286  0.00  0.00    +0.000 A 
ENDROOT
BRANCH   1  12
ATOM     11  C   UNL     1      21.476   1.080  49.291  0.00  0.00    +0.000 C 
ATOM     12  O   UNL     1      20.337   0.636  50.053  0.00  0.00    +0.000 OA
ENDBRANCH   1  12
BRANCH   4  13
ATOM     13  N   UNL     1      24.529   0.193  52.904  0.00  0.00    +0.000 N 
ATOM     14  H   UNL     1      24.264   0.806  52.180  0.00  0.00    +0.000 HD
BRANCH  13  15
ATOM     15  C   UNL     1      25.906   0.040  53.118  0.00  0.00    +0.000 A 
ATOM     16  C   UNL     1      26.532  -1.194  52.924  0.00  0.00    +0.000 A 
ATOM     17  C   UNL     1      27.915  -1.313  53.043  0.00  0.00    +0.000 A 
ATOM     18  C   UNL     1      28.692  -0.197  53.372  0.00  0.00    +0.000 A 
ATOM     19 CL   UNL     1      30.398  -0.432  53.514  0.00  0.00    +0.000 Cl
ATOM     20  C   UNL     1      28.090   1.052  53.539  0.00  0.00    +0.000 A 
ATOM     21 CL   UNL     1      28.999   2.475  53.909  0.00  0.00    +0.000 Cl
ATOM     22  C   UNL     1      26.704   1.157  53.397  0.00  0.00    +0.000 A 
ATOM     23  F   UNL     1      26.102   2.353  53.529  0.00  0.00    +0.000 F 
ENDBRANCH  13  15
ENDBRANCH   4  13
BRANCH  10  24
ATOM     24  O   UNL     1      18.340   0.709  51.992  0.00  0.00    +0.000 OA
BRANCH  24  25
ATOM     25  C   UNL     1      17.184  -0.142  52.049  0.00  0.00    +0.000 C 
BRANCH  25  26
ATOM     26  C   UNL     1      15.841   0.383  51.453  0.00  0.00    +0.000 C 
ATOM     27  C   UNL     1      15.844   1.882  51.084  0.00  0.00    +0.000 C 
ATOM     28  N   UNL     1      15.067   2.792  51.905  0.00  0.00    +0.000 N 
ATOM     29  C   UNL     1      15.569   4.146  52.025  0.00  0.00    +0.000 C 
ATOM     30  C   UNL     1      14.402   2.293  53.102  0.00  0.00    +0.000 C 
ATOM     31  C   UNL     1      13.985   0.825  53.063  0.00  0.00    +0.000 C 
ATOM     32  O   UNL     1      13.119   0.415  53.843  0.00  0.00    +0.000 OA
ATOM     33  N   UNL     1      14.619  -0.018  52.165  0.00  0.00    +0.000 N 
ATOM     34  C   UNL     1      14.152  -1.391  52.060  0.00  0.00    +0.000 C 
ATOM     35  H   UNL     1      14.270   2.856  51.271  0.00  0.00    +0.000 HD
ENDBRANCH  25  26
ENDBRANCH  24  25
ENDBRANCH  10  24
TORSDOF 6
ENDMDL
MODEL 4
REMARK VINA RESULT:    -8.574      2.397      3.870
REMARK INTER + INTRA:         -13.442
REMARK INTER:                 -12.226
REMARK INTRA:                  -1.216
REMARK UNBOUND:                -1.860
REMARK  Name = 
REMARK  9 active torsions:
REMARK  status: ('A' for Active; 'I' for Inactive)
REMARK    1  A    between atoms: C_1  and  O_2
REMARK    2  A    between atoms: O_2  and  C_3
REMARK    3  A    between atoms: C_6  and  N_7
REMARK    4  A    between atoms: N_7  and  C_8
REMARK    5  A    between atoms: C_22  and  O_23
REMARK    6  A    between atoms: O_23  and  C_24
REMARK    7  A    between atoms: C_24  and  C_25
REMARK    8  A    between atoms: N_27  and  C_28
REMARK    9  A    between atoms: N_32  and  C_33
REMARK                            x       y       z     vdW  Elec       q    Type
REMARK                         _______ _______ _______ _____ _____    ______ ____
ROOT
ATOM      1  C   UNL     1      20.895   0.754  50.499  0.00  0.00    +0.000 A 
ATOM      2  C   UNL     1      22.090   0.641  51.194  0.00  0.00    +0.000 A 
ATOM      3  C   UNL     1      22.119   0.121  52.497  0.00  0.00    +0.000 A 
ATOM      4  C   UNL     1      23.303  -0.051  53.228  0.00  0.00    +0.000 A 
ATOM      5  N   UNL     1      23.335  -0.711  54.392  0.00  0.00    +0.000 NA
ATOM      6  C   UNL     1      22.156  -1.155  54.851  0.00  0.00    +0.000 A 
ATOM      7  N   UNL     1      20.958  -0.985  54.263  0.00  0.00    +0.000 NA
ATOM      8  C   UNL     1      20.952  -0.338  53.095  0.00  0.00    +0.000 A 
ATOM      9  C   UNL     1      19.753  -0.064  52.448  0.00  0.00    +0.000 A 
ATOM     10  C   UNL     1      19.703   0.601  51.216  0.00  0.00    +0.000 A 
ENDROOT
BRANCH   1  12
ATOM     11  C   UNL     1      22.037   1.657  48.634  0.00  0.00    +0.000 C 
ATOM     12  O   UNL     1      20.871   0.983  49.144  0.00  0.00    +0.000 OA
ENDBRANCH   1  12
BRANCH   4  13
ATOM     13  N   UNL     1      24.481   0.531  52.702  0.00  0.00    +0.000 N 
ATOM     14  H   UNL     1      24.356   1.264  52.055  0.00  0.00    +0.000 HD
BRANCH  13  15
ATOM     15  C   UNL     1      25.807   0.183  52.999  0.00  0.00    +0.000 A 
ATOM     16  C   UNL     1      26.286  -1.106  52.752  0.00  0.00    +0.000 A 
ATOM     17  C   UNL     1      27.629  -1.414  52.958  0.00  0.00    +0.000 A 
ATOM     18  C   UNL     1      28.512  -0.435  53.427  0.00  0.00    +0.000 A 
ATOM     19 CL   UNL     1      30.158  -0.902  53.669  0.00  0.00    +0.000 Cl
ATOM     20  C   UNL     1      28.060   0.868  53.650  0.00  0.00    +0.000 A 
ATOM     21 CL   UNL     1      29.109   2.130  54.193  0.00  0.00    +0.000 Cl
ATOM     22  C   UNL     1      26.715   1.164  53.420  0.00  0.00    +0.000 A 
ATOM     23  F   UNL     1      26.259   2.417  53.604  0.00  0.00    +0.000 F 
ENDBRANCH  13  15
ENDBRANCH   4  13
BRANCH  10  24
ATOM     24  O   UNL     1      18.566   1.156  50.697  0.00  0.00    +0.000 OA
BRANCH  24  25
ATOM     25  C   UNL     1      17.736   1.951  51.557  0.00  0.00    +0.000 C 
BRANCH  25  26
ATOM     26  C   UNL     1      17.822   3.506  51.451  0.00  0.00    +0.000 C 
ATOM     27  C   UNL     1      16.591   4.174  50.802  0.00  0.00    +0.000 C 
ATOM     28  N   UNL     1      16.738   4.738  49.473  0.00  0.00    +0.000 N 
ATOM     29  C   UNL     1      15.560   4.722  48.628  0.00  0.00    +0.000 C 
ATOM     30  C   UNL     1      17.992   4.566  48.751  0.00  0.00    +0.000 C 
ATOM     31  C   UNL     1      19.242   4.437  49.620  0.00  0.00    +0.000 C 
ATOM     32  O   UNL     1      20.353   4.652  49.127  0.00  0.00    +0.000 OA
ATOM     33  N   UNL     1      19.090   4.048  50.941  0.00  0.00    +0.000 N 
ATOM     34  C   UNL     1      20.268   4.022  51.792  0.00  0.00    +0.000 C 
ATOM     35  H   UNL     1      16.837   5.707  49.777  0.00  0.00    +0.000 HD
ENDBRANCH  25  26
ENDBRANCH  24  25
ENDBRANCH  10  24
TORSDOF 6
ENDMDL
MODEL 5
REMARK VINA RESULT:    -8.428      2.042      3.307
REMARK INTER + INTRA:         -13.245
REMARK INTER:                 -12.321
REMARK INTRA:                  -0.924
REMARK UNBOUND:                -1.860
REMARK  Name = 
REMARK  9 active torsions:
REMARK  status: ('A' for Active; 'I' for Inactive)
REMARK    1  A    between atoms: C_1  and  O_2
REMARK    2  A    between atoms: O_2  and  C_3
REMARK    3  A    between atoms: C_6  and  N_7
REMARK    4  A    between atoms: N_7  and  C_8
REMARK    5  A    between atoms: C_22  and  O_23
REMARK    6  A    between atoms: O_23  and  C_24
REMARK    7  A    between atoms: C_24  and  C_25
REMARK    8  A    between atoms: N_27  and  C_28
REMARK    9  A    between atoms: N_32  and  C_33
REMARK                            x       y       z     vdW  Elec       q    Type
REMARK                         _______ _______ _______ _____ _____    ______ ____
ROOT
ATOM      1  C   UNL     1      21.902   1.911  50.670  0.00  0.00    +0.000 A 
ATOM      2  C   UNL     1      22.753   1.052  51.350  0.00  0.00    +0.000 A 
ATOM      3  C   UNL     1      22.434   0.591  52.637  0.00  0.00    +0.000 A 
ATOM      4  C   UNL     1      23.239  -0.307  53.352  0.00  0.00    +0.000 A 
ATOM      5  N   UNL     1      22.836  -0.873  54.495  0.00  0.00    +0.000 NA
ATOM      6  C   UNL     1      21.634  -0.493  54.951  0.00  0.00    +0.000 A 
ATOM      7  N   UNL     1      20.815   0.409  54.380  0.00  0.00    +0.000 NA
ATOM      8  C   UNL     1      21.231   0.950  53.232  0.00  0.00    +0.000 A 
ATOM      9  C   UNL     1      20.477   1.934  52.603  0.00  0.00    +0.000 A 
ATOM     10  C   UNL     1      20.870   2.518  51.393  0.00  0.00    +0.000 A 
ENDROOT
BRANCH   1  12
ATOM     11  C   UNL     1      21.162   1.366  48.489  0.00  0.00    +0.000 C 
ATOM     12  O   UNL     1      22.044   2.143  49.323  0.00  0.00    +0.000 OA
ENDBRANCH   1  12
BRANCH   4  13
ATOM     13  N   UNL     1      24.528  -0.578  52.833  0.00  0.00    +0.000 N 
ATOM     14  H   UNL     1      24.590  -1.313  52.180  0.00  0.00    +0.000 HD
BRANCH  13  15
ATOM     15  C   UNL     1      25.726   0.082  53.145  0.00  0.00    +0.000 A 
ATOM     16  C   UNL     1      25.727   1.420  53.548  0.00  0.00    +0.000 A 
ATOM     17  C   UNL     1      26.909   2.037  53.950  0.00  0.00    +0.000 A 
ATOM     18  C   UNL     1      28.114   1.324  53.941  0.00  0.00    +0.000 A 
ATOM     19 CL   UNL     1      29.537   2.167  54.440  0.00  0.00    +0.000 Cl
ATOM     20  C   UNL     1      28.129  -0.022  53.571  0.00  0.00    +0.000 A 
ATOM     21 CL   UNL     1      29.577  -0.967  53.575  0.00  0.00    +0.000 Cl
ATOM     22  C   UNL     1      26.931  -0.631  53.190  0.00  0.00    +0.000 A 
ATOM     23  F   UNL     1      26.913  -1.934  52.852  0.00  0.00    +0.000 F 
ENDBRANCH  13  15
ENDBRANCH   4  13
BRANCH  10  24
ATOM     24  O   UNL     1      20.339   3.679  50.901  0.00  0.00    +0.000 OA
BRANCH  24  25
ATOM     25  C   UNL     1      21.223   4.638  50.300  0.00  0.00    +0.000 C 
BRANCH  25  26
ATOM     26  C   UNL     1      21.810   5.775  51.193  0.00  0.00    +0.000 C 
ATOM     27  C   UNL     1      21.395   7.201  50.771  0.00  0.00    +0.000 C 
ATOM     28  N   UNL     1      22.401   8.059  50.173  0.00  0.00    +0.000 N 
ATOM     29  C   UNL     1      21.933   9.030  49.203  0.00  0.00    +0.000 C 
ATOM     30  C   UNL     1      23.728   7.525  49.890  0.00  0.00    +0.000 C 
ATOM     31  C   UNL     1      24.197   6.399  50.809  0.00  0.00    +0.000 C 
ATOM     32  O   UNL     1      25.401   6.139  50.891  0.00  0.00    +0.000 OA
ATOM     33  N   UNL     1      23.243   5.676  51.506  0.00  0.00    +0.000 N 
ATOM     34  C   UNL     1      23.695   4.672  52.455  0.00  0.00    +0.000 C 
ATOM     35  H   UNL     1      22.601   8.597  51.016  0.00  0.00    +0.000 HD
ENDBRANCH  25  26
ENDBRANCH  24  25
ENDBRANCH  10  24
TORSDOF 6
ENDMDL
MODEL 6
REMARK VINA RESULT:    -8.281      3.089      4.630
REMARK INTER + INTRA:         -13.046
REMARK INTER:                 -12.311
REMARK INTRA:                  -0.735
REMARK UNBOUND:                -1.860
REMARK  Name = 
REMARK  9 active torsions:
REMARK  status: ('A' for Active; 'I' for Inactive)
REMARK    1  A    between atoms: C_1  and  O_2
REMARK    2  A    between atoms: O_2  and  C_3
REMARK    3  A    between atoms: C_6  and  N_7
REMARK    4  A    between atoms: N_7  and  C_8
REMARK    5  A    between atoms: C_22  and  O_23
REMARK    6  A    between atoms: O_23  and  C_24
REMARK    7  A    between atoms: C_24  and  C_25
REMARK    8  A    between atoms: N_27  and  C_28
REMARK    9  A    between atoms: N_32  and  C_33
REMARK                            x       y       z     vdW  Elec       q    Type
REMARK                         _______ _______ _______ _____ _____    ______ ____
ROOT
ATOM      1  C   UNL     1      20.905   0.832  50.895  0.00  0.00    +0.000 A 
ATOM      2  C   UNL     1      22.118   0.712  51.558  0.00  0.00    +0.000 A 
ATOM      3  C   UNL     1      22.195   0.087  52.812  0.00  0.00    +0.000 A 
ATOM      4  C   UNL     1      23.400  -0.095  53.506  0.00  0.00    +0.000 A 
ATOM      5  N   UNL     1      23.482  -0.848  54.608  0.00  0.00    +0.000 NA
ATOM      6  C   UNL     1      22.332  -1.379  55.048  0.00  0.00    +0.000 A 
ATOM      7  N   UNL     1      21.117  -1.212  54.497  0.00  0.00    +0.000 NA
ATOM      8  C   UNL     1      21.060  -0.470  53.388  0.00  0.00    +0.000 A 
ATOM      9  C   UNL     1      19.838  -0.195  52.787  0.00  0.00    +0.000 A 
ATOM     10  C   UNL     1      19.736   0.568  51.617  0.00  0.00    +0.000 A 
ENDROOT
BRANCH   1  12
ATOM     11  C   UNL     1      21.218   2.535  49.281  0.00  0.00    +0.000 C 
ATOM     12  O   UNL     1      20.844   1.172  49.565  0.00  0.00    +0.000 OA
ENDBRANCH   1  12
BRANCH   4  13
ATOM     13  N   UNL     1      24.542   0.579  53.011  0.00  0.00    +0.000 N 
ATOM     14  H   UNL     1      24.373   1.374  52.455  0.00  0.00    +0.000 HD
BRANCH  13  15
ATOM     15  C   UNL     1      25.887   0.242  53.224  0.00  0.00    +0.000 A 
ATOM     16  C   UNL     1      26.374  -1.024  52.888  0.00  0.00    +0.000 A 
ATOM     17  C   UNL     1      27.730  -1.316  53.011  0.00  0.00    +0.000 A 
ATOM     18  C   UNL     1      28.619  -0.346  53.486  0.00  0.00    +0.000 A 
ATOM     19 CL   UNL     1      30.282  -0.793  53.622  0.00  0.00    +0.000 Cl
ATOM     20  C   UNL     1      28.158   0.935  53.798  0.00  0.00    +0.000 A 
ATOM     21 CL   UNL     1      29.211   2.188  54.353  0.00  0.00    +0.000 Cl
ATOM     22  C   UNL     1      26.798   1.217  53.650  0.00  0.00    +0.000 A 
ATOM     23  F   UNL     1      26.331   2.450  53.920  0.00  0.00    +0.000 F 
ENDBRANCH  13  15
ENDBRANCH   4  13
BRANCH  10  24
ATOM     24  O   UNL     1      18.566   1.116  51.165  0.00  0.00    +0.000 OA
BRANCH  24  25
ATOM     25  C   UNL     1      18.213   2.437  51.603  0.00  0.00    +0.000 C 
BRANCH  25  26
ATOM     26  C   UNL     1      17.007   3.153  50.918  0.00  0.00    +0.000 C 
ATOM     27  C   UNL     1      16.271   4.171  51.817  0.00  0.00    +0.000 C 
ATOM     28  N   UNL     1      14.944   3.831  52.293  0.00  0.00    +0.000 N 
ATOM     29  C   UNL     1      14.561   4.368  53.584  0.00  0.00    +0.000 C 
ATOM     30  C   UNL     1      14.391   2.513  52.008  0.00  0.00    +0.000 C 
ATOM     31  C   UNL     1      14.884   1.854  50.721  0.00  0.00    +0.000 C 
ATOM     32  O   UNL     1      14.228   0.939  50.213  0.00  0.00    +0.000 OA
ATOM     33  N   UNL     1      16.081   2.287  50.174  0.00  0.00    +0.000 N 
ATOM     34  C   UNL     1      16.498   1.730  48.898  0.00  0.00    +0.000 C 
ATOM     35  H   UNL     1      14.436   4.390  51.608  0.00  0.00    +0.000 HD
ENDBRANCH  25  26
ENDBRANCH  24  25
ENDBRANCH  10  24
TORSDOF 6
ENDMDL
MODEL 7
REMARK VINA RESULT:    -8.277      3.353      5.386
REMARK INTER + INTRA:         -13.041
REMARK INTER:                 -12.085
REMARK INTRA:                  -0.956
REMARK UNBOUND:                -1.860
REMARK  Name = 
REMARK  9 active torsions:
REMARK  status: ('A' for Active; 'I' for Inactive)
REMARK    1  A    between atoms: C_1  and  O_2
REMARK    2  A    between atoms: O_2  and  C_3
REMARK    3  A    between atoms: C_6  and  N_7
REMARK    4  A    between atoms: N_7  and  C_8
REMARK    5  A    between atoms: C_22  and  O_23
REMARK    6  A    between atoms: O_23  and  C_24
REMARK    7  A    between atoms: C_24  and  C_25
REMARK    8  A    between atoms: N_27  and  C_28
REMARK    9  A    between atoms: N_32  and  C_33
REMARK                            x       y       z     vdW  Elec       q    Type
REMARK                         _______ _______ _______ _____ _____    ______ ____
ROOT
ATOM      1  C   UNL     1      21.619   1.231  52.569  0.00  0.00    +0.000 A 
ATOM      2  C   UNL     1      22.913   1.689  52.773  0.00  0.00    +0.000 A 
ATOM      3  C   UNL     1      23.618   2.339  51.749  0.00  0.00    +0.000 A 
ATOM      4  C   UNL     1      24.911   2.855  51.915  0.00  0.00    +0.000 A 
ATOM      5  N   UNL     1      25.496   3.626  50.993  0.00  0.00    +0.000 NA
ATOM      6  C   UNL     1      24.796   3.838  49.869  0.00  0.00    +0.000 A 
ATOM      7  N   UNL     1      23.581   3.337  49.583  0.00  0.00    +0.000 NA
ATOM      8  C   UNL     1      23.009   2.582  50.524  0.00  0.00    +0.000 A 
ATOM      9  C   UNL     1      21.781   1.975  50.290  0.00  0.00    +0.000 A 
ATOM     10  C   UNL     1      21.141   1.186  51.254  0.00  0.00    +0.000 A 
ENDROOT
BRANCH   1  12
ATOM     11  C   UNL     1      21.392  -0.140  54.484  0.00  0.00    +0.000 C 
ATOM     12  O   UNL     1      20.815   0.857  53.619  0.00  0.00    +0.000 OA
ENDBRANCH   1  12
BRANCH   4  13
ATOM     13  N   UNL     1      25.603   2.502  53.098  0.00  0.00    +0.000 N 
ATOM     14  H   UNL     1      25.260   2.889  53.937  0.00  0.00    +0.000 HD
BRANCH  13  15
ATOM     15  C   UNL     1      26.721   1.663  53.211  0.00  0.00    +0.000 A 
ATOM     16  C   UNL     1      27.937   2.146  53.704  0.00  0.00    +0.000 A 
ATOM     17  C   UNL     1      29.012   1.283  53.905  0.00  0.00    +0.000 A 
ATOM     18  C   UNL     1      28.889  -0.077  53.602  0.00  0.00    +0.000 A 
ATOM     19 CL   UNL     1      30.273  -1.077  53.867  0.00  0.00    +0.000 Cl
ATOM     20  C   UNL     1      27.673  -0.586  53.138  0.00  0.00    +0.000 A 
ATOM     21 CL   UNL     1      27.447  -2.262  52.783  0.00  0.00    +0.000 Cl
ATOM     22  C   UNL     1      26.600   0.290  52.962  0.00  0.00    +0.000 A 
ATOM     23  F   UNL     1      25.410  -0.178  52.539  0.00  0.00    +0.000 F 
ENDBRANCH  13  15
ENDBRANCH   4  13
BRANCH  10  24
ATOM     24  O   UNL     1      20.108   0.334  50.977  0.00  0.00    +0.000 OA
BRANCH  24  25
ATOM     25  C   UNL     1      18.768   0.849  50.993  0.00  0.00    +0.000 C 
BRANCH  25  26
ATOM     26  C   UNL     1      17.580  -0.153  50.857  0.00  0.00    +0.000 C 
ATOM     27  C   UNL     1      16.703   0.056  49.604  0.00  0.00    +0.000 C 
ATOM     28  N   UNL     1      15.366   0.589  49.784  0.00  0.00    +0.000 N 
ATOM     29  C   UNL     1      14.838   1.397  48.702  0.00  0.00    +0.000 C 
ATOM     30  C   UNL     1      14.929   1.008  51.110  0.00  0.00    +0.000 C 
ATOM     31  C   UNL     1      15.574   0.271  52.282  0.00  0.00    +0.000 C 
ATOM     32  O   UNL     1      15.027   0.287  53.388  0.00  0.00    +0.000 OA
ATOM     33  N   UNL     1      16.781  -0.375  52.071  0.00  0.00    +0.000 N 
ATOM     34  C   UNL     1      17.343  -1.159  53.159  0.00  0.00    +0.000 C 
ATOM     35  H   UNL     1      14.882  -0.306  49.711  0.00  0.00    +0.000 HD
ENDBRANCH  25  26
ENDBRANCH  24  25
ENDBRANCH  10  24
TORSDOF 6
ENDMDL
MODEL 8
REMARK VINA RESULT:    -7.937      2.479      3.868
REMARK INTER + INTRA:         -12.581
REMARK INTER:                 -11.127
REMARK INTRA:                  -1.454
REMARK UNBOUND:                -1.860
REMARK  Name = 
REMARK  9 active torsions:
REMARK  status: ('A' for Active; 'I' for Inactive)
REMARK    1  A    between atoms: C_1  and  O_2
REMARK    2  A    between atoms: O_2  and  C_3
REMARK    3  A    between atoms: C_6  and  N_7
REMARK    4  A    between atoms: N_7  and  C_8
REMARK    5  A    between atoms: C_22  and  O_23
REMARK    6  A    between atoms: O_23  and  C_24
REMARK    7  A    between atoms: C_24  and  C_25
REMARK    8  A    between atoms: N_27  and  C_28
REMARK    9  A    between atoms: N_32  and  C_33
REMARK                            x       y       z     vdW  Elec       q    Type
REMARK                         _______ _______ _______ _____ _____    ______ ____
ROOT
ATOM      1  C   UNL     1      21.281   1.350  52.732  0.00  0.00    +0.000 A 
ATOM      2  C   UNL     1      22.615   1.644  52.978  0.00  0.00    +0.000 A 
ATOM      3  C   UNL     1      23.378   2.362  52.045  0.00  0.00    +0.000 A 
ATOM      4  C   UNL     1      24.717   2.718  52.260  0.00  0.00    +0.000 A 
ATOM      5  N   UNL     1      25.374   3.553  51.447  0.00  0.00    +0.000 NA
ATOM      6  C   UNL     1      24.695   3.992  50.378  0.00  0.00    +0.000 A 
ATOM      7  N   UNL     1      23.435   3.660  50.044  0.00  0.00    +0.000 NA
ATOM      8  C   UNL     1      22.793   2.838  50.878  0.00  0.00    +0.000 A 
ATOM      9  C   UNL     1      21.510   2.394  50.580  0.00  0.00    +0.000 A 
ATOM     10  C   UNL     1      20.797   1.542  51.433  0.00  0.00    +0.000 A 
ENDROOT
BRANCH   1  12
ATOM     11  C   UNL     1      20.788  -0.384  54.265  0.00  0.00    +0.000 C 
ATOM     12  O   UNL     1      20.447   0.910  53.732  0.00  0.00    +0.000 OA
ENDBRANCH   1  12
BRANCH   4  13
ATOM     13  N   UNL     1      25.374   2.133  53.369  0.00  0.00    +0.000 N 
ATOM     14  H   UNL     1      25.224   2.562  54.243  0.00  0.00    +0.000 HD
BRANCH  13  15
ATOM     15  C   UNL     1      26.214   1.009  53.363  0.00  0.00    +0.000 A 
ATOM     16  C   UNL     1      25.718  -0.259  53.050  0.00  0.00    +0.000 A 
ATOM     17  C   UNL     1      26.577  -1.350  52.951  0.00  0.00    +0.000 A 
ATOM     18  C   UNL     1      27.949  -1.189  53.177  0.00  0.00    +0.000 A 
ATOM     19 CL   UNL     1      28.944  -2.596  53.048  0.00  0.00    +0.000 Cl
ATOM     20  C   UNL     1      28.469   0.075  53.460  0.00  0.00    +0.000 A 
ATOM     21 CL   UNL     1      30.158   0.346  53.712  0.00  0.00    +0.000 Cl
ATOM     22  C   UNL     1      27.595   1.162  53.537  0.00  0.00    +0.000 A 
ATOM     23  F   UNL     1      28.074   2.396  53.784  0.00  0.00    +0.000 F 
ENDBRANCH  13  15
ENDBRANCH   4  13
BRANCH  10  24
ATOM     24  O   UNL     1      19.683   0.845  51.054  0.00  0.00    +0.000 OA
BRANCH  24  25
ATOM     25  C   UNL     1      19.210   0.986  49.706  0.00  0.00    +0.000 C 
BRANCH  25  26
ATOM     26  C   UNL     1      18.097   2.039  49.412  0.00  0.00    +0.000 C 
ATOM     27  C   UNL     1      18.531   3.188  48.477  0.00  0.00    +0.000 C 
ATOM     28  N   UNL     1      18.704   4.509  49.050  0.00  0.00    +0.000 N 
ATOM     29  C   UNL     1      19.703   5.359  48.432  0.00  0.00    +0.000 C 
ATOM     30  C   UNL     1      18.571   4.695  50.490  0.00  0.00    +0.000 C 
ATOM     31  C   UNL     1      17.630   3.721  51.197  0.00  0.00    +0.000 C 
ATOM     32  O   UNL     1      17.175   4.010  52.307  0.00  0.00    +0.000 OA
ATOM     33  N   UNL     1      17.338   2.518  50.576  0.00  0.00    +0.000 N 
ATOM     34  C   UNL     1      16.365   1.636  51.202  0.00  0.00    +0.000 C 
ATOM     35  H   UNL     1      17.806   4.881  48.738  0.00  0.00    +0.000 HD
ENDBRANCH  25  26
ENDBRANCH  24  25
ENDBRANCH  10  24
TORSDOF 6
ENDMDL
MODEL 9
REMARK VINA RESULT:    -7.886      4.285      6.034
REMARK INTER + INTRA:         -12.512
REMARK INTER:                 -11.449
REMARK INTRA:                  -1.063
REMARK UNBOUND:                -1.860
REMARK  Name = 
REMARK  9 active torsions:
REMARK  status: ('A' for Active; 'I' for Inactive)
REMARK    1  A    between atoms: C_1  and  O_2
REMARK    2  A    between atoms: O_2  and  C_3
REMARK    3  A    between atoms: C_6  and  N_7
REMARK    4  A    between atoms: N_7  and  C_8
REMARK    5  A    between atoms: C_22  and  O_23
REMARK    6  A    between atoms: O_23  and  C_24
REMARK    7  A    between atoms: C_24  and  C_25
REMARK    8  A    between atoms: N_27  and  C_28
REMARK    9  A    between atoms: N_32  and  C_33
REMARK                            x       y       z     vdW  Elec       q    Type
REMARK                         _______ _______ _______ _____ _____    ______ ____
ROOT
ATOM      1  C   UNL     1      24.833   4.119  51.231  0.00  0.00    +0.000 A 
ATOM      2  C   UNL     1      24.348   3.140  52.087  0.00  0.00    +0.000 A 
ATOM      3  C   UNL     1      24.976   1.889  52.180  0.00  0.00    +0.000 A 
ATOM      4  C   UNL     1      24.551   0.880  53.056  0.00  0.00    +0.000 A 
ATOM      5  N   UNL     1      25.263  -0.233  53.263  0.00  0.00    +0.000 NA
ATOM      6  C   UNL     1      26.387  -0.358  52.543  0.00  0.00    +0.000 A 
ATOM      7  N   UNL     1      26.848   0.517  51.630  0.00  0.00    +0.000 NA
ATOM      8  C   UNL     1      26.130   1.628  51.451  0.00  0.00    +0.000 A 
ATOM      9  C   UNL     1      26.499   2.557  50.486  0.00  0.00    +0.000 A 
ATOM     10  C   UNL     1      25.781   3.741  50.274  0.00  0.00    +0.000 A 
ENDROOT
BRANCH   1  12
ATOM     11  C   UNL     1      23.074   5.593  51.811  0.00  0.00    +0.000 C 
ATOM     12  O   UNL     1      24.422   5.427  51.330  0.00  0.00    +0.000 OA
ENDBRANCH   1  12
BRANCH   4  13
ATOM     13  N   UNL     1      23.306   1.066  53.704  0.00  0.00    +0.000 N 
ATOM     14  H   UNL     1      23.230   1.858  54.285  0.00  0.00    +0.000 HD
BRANCH  13  15
ATOM     15  C   UNL     1      22.170   0.250  53.611  0.00  0.00    +0.000 A 
ATOM     16  C   UNL     1      22.022  -0.875  54.427  0.00  0.00    +0.000 A 
ATOM     17  C   UNL     1      20.846  -1.622  54.397  0.00  0.00    +0.000 A 
ATOM     18  C   UNL     1      19.804  -1.260  53.537  0.00  0.00    +0.000 A 
ATOM     19 CL   UNL     1      18.386  -2.247  53.550  0.00  0.00    +0.000 Cl
ATOM     20  C   UNL     1      19.919  -0.122  52.735  0.00  0.00    +0.000 A 
ATOM     21 CL   UNL     1      18.653   0.399  51.680  0.00  0.00    +0.000 Cl
ATOM     22  C   UNL     1      21.097   0.627  52.793  0.00  0.00    +0.000 A 
ATOM     23  F   UNL     1      21.224   1.742  52.050  0.00  0.00    +0.000 F 
ENDBRANCH  13  15
ENDBRANCH   4  13
BRANCH  10  24
ATOM     24  O   UNL     1      25.914   4.522  49.159  0.00  0.00    +0.000 OA
BRANCH  24  25
ATOM     25  C   UNL     1      27.112   5.297  49.003  0.00  0.00    +0.000 C 
BRANCH  25  26
ATOM     26  C   UNL     1      27.031   6.651  48.230  0.00  0.00    +0.000 C 
ATOM     27  C   UNL     1      28.348   7.081  47.550  0.00  0.00    +0.000 C 
ATOM     28  N   UNL     1      29.073   8.206  48.110  0.00  0.00    +0.000 N 
ATOM     29  C   UNL     1      30.516   8.185  47.966  0.00  0.00    +0.000 C 
ATOM     30  C   UNL     1      28.606   8.823  49.345  0.00  0.00    +0.000 C 
ATOM     31  C   UNL     1      27.102   8.739  49.597  0.00  0.00    +0.000 C 
ATOM     32  O   UNL     1      26.572   9.520  50.393  0.00  0.00    +0.000 OA
ATOM     33  N   UNL     1      26.376   7.760  48.939  0.00  0.00    +0.000 N 
ATOM     34  C   UNL     1      24.931   7.745  49.103  0.00  0.00    +0.000 C 
ATOM     35  H   UNL     1      28.747   8.895  47.431  0.00  0.00    +0.000 HD
ENDBRANCH  25  26
ENDBRANCH  24  25
ENDBRANCH  10  24
TORSDOF 6
ENDMDL
