REMARK  Name = 
REMARK  7 active torsions:
REMARK  status: ('A' for Active; 'I' for Inactive)
REMARK    1  A    between atoms: C_6  and  O_7
REMARK    2  A    between atoms: O_7  and  C_8
REMARK    3  A    between atoms: C_8  and  C_9
REMARK    4  A    between atoms: C_12  and  O_13
REMARK    5  A    between atoms: O_13  and  C_14
REMARK    6  A    between atoms: C_14  and  C_15
REMARK    7  A    between atoms: C_24  and  C_25
REMARK                            x       y       z     vdW  Elec       q    Type
REMARK                         _______ _______ _______ _____ _____    ______ ____
ROOT
ATOM      1  C   UNL     1      -1.017   3.672   1.475  0.00  0.00    +0.000 A 
ATOM      2  C   UNL     1      -0.483   2.621   2.226  0.00  0.00    +0.000 A 
ATOM      3  C   UNL     1       0.295   2.883   3.364  0.00  0.00    +0.000 A 
ATOM      4  C   UNL     1       0.549   4.194   3.793  0.00  0.00    +0.000 A 
ATOM      5  C   UNL     1      -0.081   5.243   3.110  0.00  0.00    +0.000 A 
ATOM      6 CL   UNL     1      -0.045   6.891   3.632  0.00  0.00    +0.000 Cl
ATOM      7  C   UNL     1      -0.838   4.980   1.951  0.00  0.00    +0.000 A 
ENDROOT
BRANCH   1   8
ATOM      8  C   UNL     1      -1.664   3.423   0.124  0.00  0.00    +0.000 C 
BRANCH   8   9
ATOM      9  O   UNL     1      -3.097   3.339   0.165  0.00  0.00    +0.000 OA
BRANCH   9  15
ATOM     10  N   UNL     1      -6.794   2.968  -2.968  0.00  0.00    +0.000 N 
ATOM     11  C   UNL     1      -5.453   3.075  -2.611  0.00  0.00    +0.000 A 
ATOM     12  N   UNL     1      -4.610   3.026  -3.654  0.00  0.00    +0.000 NA
ATOM     13  C   UNL     1      -3.305   3.049  -3.371  0.00  0.00    +0.000 A 
ATOM     14  N   UNL     1      -2.775   3.127  -2.146  0.00  0.00    +0.000 NA
ATOM     15  C   UNL     1      -3.641   3.180  -1.109  0.00  0.00    +0.000 A 
ATOM     16  C   UNL     1      -5.014   3.136  -1.288  0.00  0.00    +0.000 A 
ATOM     17  H   UNL     1      -7.049   2.928  -3.918  0.00  0.00    +0.000 HD
ATOM     18  H   UNL     1      -7.488   2.931  -2.271  0.00  0.00    +0.000 HD
BRANCH  16  19
ATOM     19  C   UNL     1      -5.998   3.228  -0.207  0.00  0.00    +0.000 C 
ATOM     20  O   UNL     1      -7.041   3.857  -0.254  0.00  0.00    +0.000 OA
ATOM     21  O   UNL     1      -5.687   2.464   0.855  0.00  0.00    +0.000 OA
ENDBRANCH  16  19
ENDBRANCH   9  15
ENDBRANCH   8   9
ENDBRANCH   1   8
BRANCH   4  22
ATOM     22  O   UNL     1       1.375   4.259   4.889  0.00  0.00    +0.000 OA
BRANCH  22  23
ATOM     23  C   UNL     1       2.276   5.370   4.990  0.00  0.00    +0.000 C 
BRANCH  23  24
ATOM     24  C   UNL     1       3.615   4.969   5.590  0.00  0.00    +0.000 A 
ATOM     25  C   UNL     1       4.764   5.721   5.276  0.00  0.00    +0.000 A 
ATOM     26  C   UNL     1       6.011   5.388   5.811  0.00  0.00    +0.000 A 
ATOM     27  C   UNL     1       6.126   4.308   6.685  0.00  0.00    +0.000 A 
ATOM     28  C   UNL     1       4.990   3.578   7.036  0.00  0.00    +0.000 A 
ATOM     29  C   UNL     1       3.743   3.912   6.499  0.00  0.00    +0.000 A 
ENDBRANCH  23  24
ENDBRANCH  22  23
ENDBRANCH   4  22
TORSDOF 7
