MODEL 1
REMARK VINA RESULT:    -9.736      0.000      0.000
REMARK INTER + INTRA:         -13.479
REMARK INTER:                 -12.581
REMARK INTRA:                  -0.898
REMARK UNBOUND:                -0.898
REMARK  Name = 
REMARK  8 active torsions:
REMARK  status: ('A' for Active; 'I' for Inactive)
REMARK    1  A    between atoms: C_1  and  C_2
REMARK    2  A    between atoms: C_2  and  C_3
REMARK    3  A    between atoms: C_2  and  C_4
REMARK    4  A    between atoms: C_2  and  O_5
REMARK    5  A    between atoms: O_5  and  C_6
REMARK    6  A    between atoms: N_8  and  C_9
REMARK    7  A    between atoms: C_12  and  C_13
REMARK    8  A    between atoms: N_21  and  C_22
REMARK                            x       y       z     vdW  Elec       q    Type
REMARK                         _______ _______ _______ _____ _____    ______ ____
ROOT
ATOM      1  C   UNL     1      22.075   1.466  52.656  0.00  0.00    +0.000 A 
ATOM      2  N   UNL     1      20.751   1.498  53.058  0.00  0.00    +0.000 N 
ATOM      3  N   UNL     1      20.388   0.565  53.940  0.00  0.00    +0.000 NA
ATOM      4  C   UNL     1      21.528  -0.068  54.205  0.00  0.00    +0.000 A 
ATOM      5  N   UNL     1      21.663  -1.084  55.083  0.00  0.00    +0.000 NA
ATOM      6  C   UNL     1      22.945  -1.490  55.158  0.00  0.00    +0.000 A 
ATOM      7  N   UNL     1      24.048  -1.021  54.508  0.00  0.00    +0.000 NA
ATOM      8  C   UNL     1      23.943  -0.013  53.586  0.00  0.00    +0.000 A 
ATOM      9  N   UNL     1      25.078   0.397  52.880  0.00  0.00    +0.000 N 
ATOM     10  C   UNL     1      22.622   0.462  53.446  0.00  0.00    +0.000 A 
ATOM     11  H   UNL     1      20.117   2.169  52.715  0.00  0.00    +0.000 HD
ATOM     12  H   UNL     1      24.914   0.794  51.993  0.00  0.00    +0.000 HD
ENDROOT
BRANCH   9  13
ATOM     13  C   UNL     1      26.428   0.314  53.276  0.00  0.00    +0.000 A 
ATOM     14  C   UNL     1      27.122   1.419  53.797  0.00  0.00    +0.000 A 
ATOM     15  C   UNL     1      28.476   1.333  54.142  0.00  0.00    +0.000 A 
ATOM     16  C   UNL     1      29.159   0.131  53.980  0.00  0.00    +0.000 A 
ATOM     17  C   UNL     1      28.480  -0.975  53.475  0.00  0.00    +0.000 A 
ATOM     18 CL   UNL     1      29.318  -2.467  53.280  0.00  0.00    +0.000 Cl
ATOM     19  C   UNL     1      27.130  -0.887  53.121  0.00  0.00    +0.000 A 
ENDBRANCH   9  13
BRANCH   1  23
ATOM     20  C   UNL     1      23.681   4.307  49.845  0.00  0.00    +0.000 A 
ATOM     21  C   UNL     1      23.324   3.020  49.436  0.00  0.00    +0.000 A 
ATOM     22  C   UNL     1      22.789   2.092  50.340  0.00  0.00    +0.000 A 
ATOM     23  C   UNL     1      22.542   2.443  51.664  0.00  0.00    +0.000 A 
ATOM     24  C   UNL     1      22.844   3.762  52.055  0.00  0.00    +0.000 A 
ATOM     25  C   UNL     1      23.415   4.680  51.161  0.00  0.00    +0.000 A 
BRANCH  20  28
ATOM     26  C   UNL     1      25.695   5.402  48.894  0.00  0.00    +0.000 C 
ATOM     27  O   UNL     1      26.562   4.711  49.405  0.00  0.00    +0.000 OA
ATOM     28  N   UNL     1      24.342   5.233  49.016  0.00  0.00    +0.000 N 
ATOM     29  H   UNL     1      23.773   5.820  48.467  0.00  0.00    +0.000 HD
BRANCH  26  30
ATOM     30  O   UNL     1      25.948   6.488  48.115  0.00  0.00    +0.000 OA
BRANCH  30  32
ATOM     31  C   UNL     1      28.128   7.544  48.547  0.00  0.00    +0.000 C 
ATOM     32  C   UNL     1      26.603   7.640  48.704  0.00  0.00    +0.000 C 
ATOM     33  C   UNL     1      26.186   7.838  50.172  0.00  0.00    +0.000 C 
ATOM     34  C   UNL     1      26.115   8.857  47.907  0.00  0.00    +0.000 C 
ENDBRANCH  30  32
ENDBRANCH  26  30
ENDBRANCH  20  28
ENDBRANCH   1  23
TORSDOF 5
ENDMDL
MODEL 2
REMARK VINA RESULT:    -9.216      1.350      2.056
REMARK INTER + INTRA:         -12.808
REMARK INTER:                 -12.353
REMARK INTRA:                  -0.454
REMARK UNBOUND:                -0.898
REMARK  Name = 
REMARK  8 active torsions:
REMARK  status: ('A' for Active; 'I' for Inactive)
REMARK    1  A    between atoms: C_1  and  C_2
REMARK    2  A    between atoms: C_2  and  C_3
REMARK    3  A    between atoms: C_2  and  C_4
REMARK    4  A    between atoms: C_2  and  O_5
REMARK    5  A    between atoms: O_5  and  C_6
REMARK    6  A    between atoms: N_8  and  C_9
REMARK    7  A    between atoms: C_12  and  C_13
REMARK    8  A    between atoms: N_21  and  C_22
REMARK                            x       y       z     vdW  Elec       q    Type
REMARK                         _______ _______ _______ _____ _____    ______ ____
ROOT
ATOM      1  C   UNL     1      22.999   2.832  51.763  0.00  0.00    +0.000 A 
ATOM      2  N   UNL     1      21.639   3.061  51.891  0.00  0.00    +0.000 N 
ATOM      3  N   UNL     1      20.934   2.075  52.450  0.00  0.00    +0.000 NA
ATOM      4  C   UNL     1      21.863   1.184  52.785  0.00  0.00    +0.000 A 
ATOM      5  N   UNL     1      21.623   0.017  53.420  0.00  0.00    +0.000 NA
ATOM      6  C   UNL     1      22.770  -0.650  53.654  0.00  0.00    +0.000 A 
ATOM      7  N   UNL     1      24.055  -0.305  53.358  0.00  0.00    +0.000 NA
ATOM      8  C   UNL     1      24.333   0.855  52.685  0.00  0.00    +0.000 A 
ATOM      9  N   UNL     1      25.654   1.147  52.329  0.00  0.00    +0.000 N 
ATOM     10  C   UNL     1      23.175   1.609  52.398  0.00  0.00    +0.000 A 
ATOM     11  H   UNL     1      21.219   3.899  51.590  0.00  0.00    +0.000 HD
ATOM     12  H   UNL     1      25.769   1.726  51.540  0.00  0.00    +0.000 HD
ENDROOT
BRANCH   9  13
ATOM     13  C   UNL     1      26.840   0.716  52.955  0.00  0.00    +0.000 A 
ATOM     14  C   UNL     1      27.628   1.579  53.734  0.00  0.00    +0.000 A 
ATOM     15  C   UNL     1      28.829   1.150  54.311  0.00  0.00    +0.000 A 
ATOM     16  C   UNL     1      29.259  -0.161  54.125  0.00  0.00    +0.000 A 
ATOM     17  C   UNL     1      28.482  -1.030  53.363  0.00  0.00    +0.000 A 
ATOM     18 CL   UNL     1      29.005  -2.655  53.135  0.00  0.00    +0.000 Cl
ATOM     19  C   UNL     1      27.287  -0.599  52.778  0.00  0.00    +0.000 A 
ENDBRANCH   9  13
BRANCH   1  23
ATOM     20  C   UNL     1      25.595   5.851  50.120  0.00  0.00    +0.000 A 
ATOM     21  C   UNL     1      25.679   4.525  49.691  0.00  0.00    +0.000 A 
ATOM     22  C   UNL     1      24.831   3.538  50.210  0.00  0.00    +0.000 A 
ATOM     23  C   UNL     1      23.836   3.859  51.129  0.00  0.00    +0.000 A 
ATOM     24  C   UNL     1      23.714   5.208  51.511  0.00  0.00    +0.000 A 
ATOM     25  C   UNL     1      24.587   6.191  51.021  0.00  0.00    +0.000 A 
BRANCH  20  28
ATOM     26  C   UNL     1      26.610   7.431  48.497  0.00  0.00    +0.000 C 
ATOM     27  O   UNL     1      25.868   7.247  47.545  0.00  0.00    +0.000 OA
ATOM     28  N   UNL     1      26.503   6.855  49.735  0.00  0.00    +0.000 N 
ATOM     29  H   UNL     1      27.126   7.177  50.426  0.00  0.00    +0.000 HD
BRANCH  26  30
ATOM     30  O   UNL     1      27.695   8.248  48.470  0.00  0.00    +0.000 OA
BRANCH  30  32
ATOM     31  C   UNL     1      28.957   6.196  47.964  0.00  0.00    +0.000 C 
ATOM     32  C   UNL     1      28.953   7.732  47.964  0.00  0.00    +0.000 C 
ATOM     33  C   UNL     1      30.152   8.312  48.734  0.00  0.00    +0.000 C 
ATOM     34  C   UNL     1      29.051   8.210  46.508  0.00  0.00    +0.000 C 
ENDBRANCH  30  32
ENDBRANCH  26  30
ENDBRANCH  20  28
ENDBRANCH   1  23
TORSDOF 5
ENDMDL
MODEL 3
REMARK VINA RESULT:    -8.864      4.525      8.387
REMARK INTER + INTRA:         -12.353
REMARK INTER:                 -11.891
REMARK INTRA:                  -0.462
REMARK UNBOUND:                -0.898
REMARK  Name = 
REMARK  8 active torsions:
REMARK  status: ('A' for Active; 'I' for Inactive)
REMARK    1  A    between atoms: C_1  and  C_2
REMARK    2  A    between atoms: C_2  and  C_3
REMARK    3  A    between atoms: C_2  and  C_4
REMARK    4  A    between atoms: C_2  and  O_5
REMARK    5  A    between atoms: O_5  and  C_6
REMARK    6  A    between atoms: N_8  and  C_9
REMARK    7  A    between atoms: C_12  and  C_13
REMARK    8  A    between atoms: N_21  and  C_22
REMARK                            x       y       z     vdW  Elec       q    Type
REMARK                         _______ _______ _______ _____ _____    ______ ____
ROOT
ATOM      1  C   UNL     1      24.689  -0.223  53.419  0.00  0.00    +0.000 A 
ATOM      2  N   UNL     1      25.445  -1.144  54.125  0.00  0.00    +0.000 N 
ATOM      3  N   UNL     1      26.767  -0.962  54.087  0.00  0.00    +0.000 NA
ATOM      4  C   UNL     1      26.902   0.169  53.399  0.00  0.00    +0.000 A 
ATOM      5  N   UNL     1      28.078   0.776  53.132  0.00  0.00    +0.000 NA
ATOM      6  C   UNL     1      27.885   1.922  52.450  0.00  0.00    +0.000 A 
ATOM      7  N   UNL     1      26.725   2.507  52.039  0.00  0.00    +0.000 NA
ATOM      8  C   UNL     1      25.516   1.904  52.264  0.00  0.00    +0.000 A 
ATOM      9  N   UNL     1      24.348   2.489  51.765  0.00  0.00    +0.000 N 
ATOM     10  C   UNL     1      25.637   0.688  52.971  0.00  0.00    +0.000 A 
ATOM     11  H   UNL     1      25.033  -1.886  54.623  0.00  0.00    +0.000 HD
ATOM     12  H   UNL     1      23.601   1.873  51.584  0.00  0.00    +0.000 HD
ENDROOT
BRANCH   9  13
ATOM     13  C   UNL     1      24.106   3.850  51.487  0.00  0.00    +0.000 A 
ATOM     14  C   UNL     1      23.326   4.656  52.333  0.00  0.00    +0.000 A 
ATOM     15  C   UNL     1      23.055   5.992  52.019  0.00  0.00    +0.000 A 
ATOM     16  C   UNL     1      23.572   6.551  50.854  0.00  0.00    +0.000 A 
ATOM     17  C   UNL     1      24.355   5.766  50.012  0.00  0.00    +0.000 A 
ATOM     18 CL   UNL     1      25.002   6.453  48.572  0.00  0.00    +0.000 Cl
ATOM     19  C   UNL     1      24.618   4.427  50.319  0.00  0.00    +0.000 A 
ENDBRANCH   9  13
BRANCH   1  23
ATOM     20  C   UNL     1      20.388  -0.449  53.462  0.00  0.00    +0.000 A 
ATOM     21  C   UNL     1      21.075  -0.110  52.294  0.00  0.00    +0.000 A 
ATOM     22  C   UNL     1      22.474  -0.047  52.266  0.00  0.00    +0.000 A 
ATOM     23  C   UNL     1      23.228  -0.375  53.389  0.00  0.00    +0.000 A 
ATOM     24  C   UNL     1      22.533  -0.778  54.545  0.00  0.00    +0.000 A 
ATOM     25  C   UNL     1      21.132  -0.806  54.586  0.00  0.00    +0.000 A 
BRANCH  20  28
ATOM     26  C   UNL     1      18.119  -1.454  53.478  0.00  0.00    +0.000 C 
ATOM     27  O   UNL     1      18.418  -2.632  53.360  0.00  0.00    +0.000 OA
ATOM     28  N   UNL     1      18.986  -0.401  53.585  0.00  0.00    +0.000 N 
ATOM     29  H   UNL     1      18.589   0.481  53.767  0.00  0.00    +0.000 HD
BRANCH  26  30
ATOM     30  O   UNL     1      16.840  -0.993  53.506  0.00  0.00    +0.000 OA
BRANCH  30  32
ATOM     31  C   UNL     1      15.322  -2.098  51.914  0.00  0.00    +0.000 C 
ATOM     32  C   UNL     1      16.122  -0.832  52.256  0.00  0.00    +0.000 C 
ATOM     33  C   UNL     1      17.065  -0.419  51.112  0.00  0.00    +0.000 C 
ATOM     34  C   UNL     1      15.127   0.315  52.486  0.00  0.00    +0.000 C 
ENDBRANCH  30  32
ENDBRANCH  26  30
ENDBRANCH  20  28
ENDBRANCH   1  23
TORSDOF 5
ENDMDL
MODEL 4
REMARK VINA RESULT:    -8.726      1.406      2.001
REMARK INTER + INTRA:         -12.174
REMARK INTER:                 -11.537
REMARK INTRA:                  -0.638
REMARK UNBOUND:                -0.898
REMARK  Name = 
REMARK  8 active torsions:
REMARK  status: ('A' for Active; 'I' for Inactive)
REMARK    1  A    between atoms: C_1  and  C_2
REMARK    2  A    between atoms: C_2  and  C_3
REMARK    3  A    between atoms: C_2  and  C_4
REMARK    4  A    between atoms: C_2  and  O_5
REMARK    5  A    between atoms: O_5  and  C_6
REMARK    6  A    between atoms: N_8  and  C_9
REMARK    7  A    between atoms: C_12  and  C_13
REMARK    8  A    between atoms: N_21  and  C_22
REMARK                            x       y       z     vdW  Elec       q    Type
REMARK                         _______ _______ _______ _____ _____    ______ ____
ROOT
ATOM      1  C   UNL     1      22.726   2.552  51.997  0.00  0.00    +0.000 A 
ATOM      2  N   UNL     1      21.389   2.785  52.268  0.00  0.00    +0.000 N 
ATOM      3  N   UNL     1      20.749   1.812  52.920  0.00  0.00    +0.000 NA
ATOM      4  C   UNL     1      21.709   0.925  53.169  0.00  0.00    +0.000 A 
ATOM      5  N   UNL     1      21.540  -0.228  53.849  0.00  0.00    +0.000 NA
ATOM      6  C   UNL     1      22.706  -0.893  53.969  0.00  0.00    +0.000 A 
ATOM      7  N   UNL     1      23.951  -0.557  53.527  0.00  0.00    +0.000 NA
ATOM      8  C   UNL     1      24.154   0.590  52.806  0.00  0.00    +0.000 A 
ATOM      9  N   UNL     1      25.427   0.872  52.302  0.00  0.00    +0.000 N 
ATOM     10  C   UNL     1      22.971   1.341  52.632  0.00  0.00    +0.000 A 
ATOM     11  H   UNL     1      20.939   3.618  51.998  0.00  0.00    +0.000 HD
ATOM     12  H   UNL     1      25.455   1.436  51.494  0.00  0.00    +0.000 HD
ENDROOT
BRANCH   9  13
ATOM     13  C   UNL     1      26.675   0.451  52.803  0.00  0.00    +0.000 A 
ATOM     14  C   UNL     1      27.126  -0.872  52.667  0.00  0.00    +0.000 A 
ATOM     15  C   UNL     1      28.347  -1.287  53.212  0.00  0.00    +0.000 A 
ATOM     16  C   UNL     1      29.147  -0.376  53.896  0.00  0.00    +0.000 A 
ATOM     17  C   UNL     1      28.717   0.941  54.030  0.00  0.00    +0.000 A 
ATOM     18 CL   UNL     1      29.705   2.074  54.870  0.00  0.00    +0.000 Cl
ATOM     19  C   UNL     1      27.492   1.354  53.494  0.00  0.00    +0.000 A 
ENDBRANCH   9  13
BRANCH   1  23
ATOM     20  C   UNL     1      24.759   5.557  49.676  0.00  0.00    +0.000 A 
ATOM     21  C   UNL     1      24.324   5.830  50.975  0.00  0.00    +0.000 A 
ATOM     22  C   UNL     1      23.673   4.855  51.743  0.00  0.00    +0.000 A 
ATOM     23  C   UNL     1      23.490   3.564  51.256  0.00  0.00    +0.000 A 
ATOM     24  C   UNL     1      23.987   3.277  49.970  0.00  0.00    +0.000 A 
ATOM     25  C   UNL     1      24.605   4.261  49.185  0.00  0.00    +0.000 A 
BRANCH  20  28
ATOM     26  C   UNL     1      26.606   6.650  48.430  0.00  0.00    +0.000 C 
ATOM     27  O   UNL     1      27.512   5.873  48.688  0.00  0.00    +0.000 OA
ATOM     28  N   UNL     1      25.298   6.530  48.813  0.00  0.00    +0.000 N 
ATOM     29  H   UNL     1      24.669   7.193  48.447  0.00  0.00    +0.000 HD
BRANCH  26  30
ATOM     30  O   UNL     1      26.766   7.795  47.715  0.00  0.00    +0.000 OA
BRANCH  30  32
ATOM     31  C   UNL     1      28.634   9.384  47.930  0.00  0.00    +0.000 C 
ATOM     32  C   UNL     1      27.223   8.993  48.395  0.00  0.00    +0.000 C 
ATOM     33  C   UNL     1      27.141   8.840  49.924  0.00  0.00    +0.000 C 
ATOM     34  C   UNL     1      26.256  10.110  47.979  0.00  0.00    +0.000 C 
ENDBRANCH  30  32
ENDBRANCH  26  30
ENDBRANCH  20  28
ENDBRANCH   1  23
TORSDOF 5
ENDMDL
MODEL 5
REMARK VINA RESULT:    -8.364      3.377      5.555
REMARK INTER + INTRA:         -11.707
REMARK INTER:                 -11.574
REMARK INTRA:                  -0.133
REMARK UNBOUND:                -0.898
REMARK  Name = 
REMARK  8 active torsions:
REMARK  status: ('A' for Active; 'I' for Inactive)
REMARK    1  A    between atoms: C_1  and  C_2
REMARK    2  A    between atoms: C_2  and  C_3
REMARK    3  A    between atoms: C_2  and  C_4
REMARK    4  A    between atoms: C_2  and  O_5
REMARK    5  A    between atoms: O_5  and  C_6
REMARK    6  A    between atoms: N_8  and  C_9
REMARK    7  A    between atoms: C_12  and  C_13
REMARK    8  A    between atoms: N_21  and  C_22
REMARK                            x       y       z     vdW  Elec       q    Type
REMARK                         _______ _______ _______ _____ _____    ______ ____
ROOT
ATOM      1  C   UNL     1      24.214   0.639  52.755  0.00  0.00    +0.000 A 
ATOM      2  N   UNL     1      25.126  -0.203  53.368  0.00  0.00    +0.000 N 
ATOM      3  N   UNL     1      24.628  -1.020  54.299  0.00  0.00    +0.000 NA
ATOM      4  C   UNL     1      23.320  -0.779  54.252  0.00  0.00    +0.000 A 
ATOM      5  N   UNL     1      22.391  -1.406  55.003  0.00  0.00    +0.000 NA
ATOM      6  C   UNL     1      21.152  -0.970  54.702  0.00  0.00    +0.000 A 
ATOM      7  N   UNL     1      20.753  -0.043  53.784  0.00  0.00    +0.000 NA
ATOM      8  C   UNL     1      21.671   0.636  53.028  0.00  0.00    +0.000 A 
ATOM      9  N   UNL     1      21.238   1.634  52.148  0.00  0.00    +0.000 N 
ATOM     10  C   UNL     1      22.999   0.236  53.293  0.00  0.00    +0.000 A 
ATOM     11  H   UNL     1      26.081  -0.199  53.132  0.00  0.00    +0.000 HD
ATOM     12  H   UNL     1      21.892   2.343  51.947  0.00  0.00    +0.000 HD
ENDROOT
BRANCH   9  13
ATOM     13  C   UNL     1      19.985   1.752  51.515  0.00  0.00    +0.000 A 
ATOM     14  C   UNL     1      19.561   0.849  50.527  0.00  0.00    +0.000 A 
ATOM     15  C   UNL     1      18.334   1.008  49.872  0.00  0.00    +0.000 A 
ATOM     16  C   UNL     1      17.501   2.072  50.205  0.00  0.00    +0.000 A 
ATOM     17  C   UNL     1      17.906   2.969  51.191  0.00  0.00    +0.000 A 
ATOM     18 CL   UNL     1      16.878   4.285  51.612  0.00  0.00    +0.000 Cl
ATOM     19  C   UNL     1      19.137   2.817  51.838  0.00  0.00    +0.000 A 
ENDBRANCH   9  13
BRANCH   1  23
ATOM     20  C   UNL     1      25.525   3.616  49.931  0.00  0.00    +0.000 A 
ATOM     21  C   UNL     1      26.445   2.944  50.740  0.00  0.00    +0.000 A 
ATOM     22  C   UNL     1      26.030   1.964  51.652  0.00  0.00    +0.000 A 
ATOM     23  C   UNL     1      24.692   1.590  51.742  0.00  0.00    +0.000 A 
ATOM     24  C   UNL     1      23.779   2.225  50.879  0.00  0.00    +0.000 A 
ATOM     25  C   UNL     1      24.187   3.232  49.992  0.00  0.00    +0.000 A 
BRANCH  20  28
ATOM     26  C   UNL     1      25.821   6.025  49.416  0.00  0.00    +0.000 C 
ATOM     27  O   UNL     1      25.576   6.499  50.515  0.00  0.00    +0.000 OA
ATOM     28  N   UNL     1      25.866   4.696  49.095  0.00  0.00    +0.000 N 
ATOM     29  H   UNL     1      26.169   4.472  48.185  0.00  0.00    +0.000 HD
BRANCH  26  30
ATOM     30  O   UNL     1      26.079   6.769  48.308  0.00  0.00    +0.000 OA
BRANCH  30  32
ATOM     31  C   UNL     1      28.496   6.318  48.193  0.00  0.00    +0.000 C 
ATOM     32  C   UNL     1      27.386   7.379  48.157  0.00  0.00    +0.000 C 
ATOM     33  C   UNL     1      27.615   8.488  49.200  0.00  0.00    +0.000 C 
ATOM     34  C   UNL     1      27.391   8.031  46.767  0.00  0.00    +0.000 C 
ENDBRANCH  30  32
ENDBRANCH  26  30
ENDBRANCH  20  28
ENDBRANCH   1  23
TORSDOF 5
ENDMDL
MODEL 6
REMARK VINA RESULT:    -8.358      4.290      7.259
REMARK INTER + INTRA:         -11.699
REMARK INTER:                 -11.012
REMARK INTRA:                  -0.687
REMARK UNBOUND:                -0.898
REMARK  Name = 
REMARK  8 active torsions:
REMARK  status: ('A' for Active; 'I' for Inactive)
REMARK    1  A    between atoms: C_1  and  C_2
REMARK    2  A    between atoms: C_2  and  C_3
REMARK    3  A    between atoms: C_2  and  C_4
REMARK    4  A    between atoms: C_2  and  O_5
REMARK    5  A    between atoms: O_5  and  C_6
REMARK    6  A    between atoms: N_8  and  C_9
REMARK    7  A    between atoms: C_12  and  C_13
REMARK    8  A    between atoms: N_21  and  C_22
REMARK                            x       y       z     vdW  Elec       q    Type
REMARK                         _______ _______ _______ _____ _____    ______ ____
ROOT
ATOM      1  C   UNL     1      24.134   0.270  52.929  0.00  0.00    +0.000 A 
ATOM      2  N   UNL     1      24.524  -0.752  53.777  0.00  0.00    +0.000 N 
ATOM      3  N   UNL     1      25.828  -0.815  54.052  0.00  0.00    +0.000 NA
ATOM      4  C   UNL     1      26.324   0.253  53.432  0.00  0.00    +0.000 A 
ATOM      5  N   UNL     1      27.620   0.629  53.457  0.00  0.00    +0.000 NA
ATOM      6  C   UNL     1      27.804   1.772  52.767  0.00  0.00    +0.000 A 
ATOM      7  N   UNL     1      26.898   2.546  52.104  0.00  0.00    +0.000 NA
ATOM      8  C   UNL     1      25.581   2.179  52.032  0.00  0.00    +0.000 A 
ATOM      9  N   UNL     1      24.689   2.953  51.283  0.00  0.00    +0.000 N 
ATOM     10  C   UNL     1      25.310   0.981  52.729  0.00  0.00    +0.000 A 
ATOM     11  H   UNL     1      23.878  -1.393  54.154  0.00  0.00    +0.000 HD
ATOM     12  H   UNL     1      23.904   2.477  50.923  0.00  0.00    +0.000 HD
ENDROOT
BRANCH   9  13
ATOM     13  C   UNL     1      24.770   4.326  50.978  0.00  0.00    +0.000 A 
ATOM     14  C   UNL     1      23.994   5.286  51.648  0.00  0.00    +0.000 A 
ATOM     15  C   UNL     1      24.052   6.641  51.302  0.00  0.00    +0.000 A 
ATOM     16  C   UNL     1      24.899   7.061  50.280  0.00  0.00    +0.000 A 
ATOM     17  C   UNL     1      25.681   6.121  49.615  0.00  0.00    +0.000 A 
ATOM     18 CL   UNL     1      26.736   6.636  48.355  0.00  0.00    +0.000 Cl
ATOM     19  C   UNL     1      25.617   4.765  49.954  0.00  0.00    +0.000 A 
ENDBRANCH   9  13
BRANCH   1  23
ATOM     20  C   UNL     1      19.986   0.849  51.920  0.00  0.00    +0.000 A 
ATOM     21  C   UNL     1      20.964   0.794  50.924  0.00  0.00    +0.000 A 
ATOM     22  C   UNL     1      22.314   0.593  51.240  0.00  0.00    +0.000 A 
ATOM     23  C   UNL     1      22.718   0.385  52.556  0.00  0.00    +0.000 A 
ATOM     24  C   UNL     1      21.720   0.378  53.549  0.00  0.00    +0.000 A 
ATOM     25  C   UNL     1      20.373   0.616  53.239  0.00  0.00    +0.000 A 
BRANCH  20  28
ATOM     26  C   UNL     1      18.072   2.420  51.762  0.00  0.00    +0.000 C 
ATOM     27  O   UNL     1      18.657   3.473  51.967  0.00  0.00    +0.000 OA
ATOM     28  N   UNL     1      18.640   1.178  51.674  0.00  0.00    +0.000 N 
ATOM     29  H   UNL     1      18.045   0.439  51.411  0.00  0.00    +0.000 HD
BRANCH  26  30
ATOM     30  O   UNL     1      16.727   2.316  51.598  0.00  0.00    +0.000 OA
BRANCH  30  32
ATOM     31  C   UNL     1      17.107   2.675  49.193  0.00  0.00    +0.000 C 
ATOM     32  C   UNL     1      16.127   2.800  50.369  0.00  0.00    +0.000 C 
ATOM     33  C   UNL     1      15.596   4.236  50.527  0.00  0.00    +0.000 C 
ATOM     34  C   UNL     1      14.929   1.881  50.093  0.00  0.00    +0.000 C 
ENDBRANCH  30  32
ENDBRANCH  26  30
ENDBRANCH  20  28
ENDBRANCH   1  23
TORSDOF 5
ENDMDL
MODEL 7
REMARK VINA RESULT:    -8.345      4.892      7.543
REMARK INTER + INTRA:         -11.682
REMARK INTER:                 -11.073
REMARK INTRA:                  -0.609
REMARK UNBOUND:                -0.898
REMARK  Name = 
REMARK  8 active torsions:
REMARK  status: ('A' for Active; 'I' for Inactive)
REMARK    1  A    between atoms: C_1  and  C_2
REMARK    2  A    between atoms: C_2  and  C_3
REMARK    3  A    between atoms: C_2  and  C_4
REMARK    4  A    between atoms: C_2  and  O_5
REMARK    5  A    between atoms: O_5  and  C_6
REMARK    6  A    between atoms: N_8  and  C_9
REMARK    7  A    between atoms: C_12  and  C_13
REMARK    8  A    between atoms: N_21  and  C_22
REMARK                            x       y       z     vdW  Elec       q    Type
REMARK                         _______ _______ _______ _____ _____    ______ ____
ROOT
ATOM      1  C   UNL     1      23.088   0.484  52.805  0.00  0.00    +0.000 A 
ATOM      2  N   UNL     1      23.045  -0.410  53.862  0.00  0.00    +0.000 N 
ATOM      3  N   UNL     1      24.227  -0.860  54.291  0.00  0.00    +0.000 NA
ATOM      4  C   UNL     1      25.101  -0.182  53.552  0.00  0.00    +0.000 A 
ATOM      5  N   UNL     1      26.443  -0.280  53.657  0.00  0.00    +0.000 NA
ATOM      6  C   UNL     1      27.056   0.559  52.799  0.00  0.00    +0.000 A 
ATOM      7  N   UNL     1      26.520   1.442  51.909  0.00  0.00    +0.000 NA
ATOM      8  C   UNL     1      25.163   1.545  51.753  0.00  0.00    +0.000 A 
ATOM      9  N   UNL     1      24.644   2.404  50.780  0.00  0.00    +0.000 N 
ATOM     10  C   UNL     1      24.449   0.687  52.617  0.00  0.00    +0.000 A 
ATOM     11  H   UNL     1      22.197  -0.695  54.271  0.00  0.00    +0.000 HD
ATOM     12  H   UNL     1      23.757   2.165  50.423  0.00  0.00    +0.000 HD
ENDROOT
BRANCH   9  13
ATOM     13  C   UNL     1      25.229   3.569  50.245  0.00  0.00    +0.000 A 
ATOM     14  C   UNL     1      26.376   3.523  49.435  0.00  0.00    +0.000 A 
ATOM     15  C   UNL     1      26.974   4.693  48.951  0.00  0.00    +0.000 A 
ATOM     16  C   UNL     1      26.424   5.933  49.261  0.00  0.00    +0.000 A 
ATOM     17  C   UNL     1      25.281   5.992  50.053  0.00  0.00    +0.000 A 
ATOM     18 CL   UNL     1      24.592   7.524  50.435  0.00  0.00    +0.000 Cl
ATOM     19  C   UNL     1      24.689   4.825  50.547  0.00  0.00    +0.000 A 
ENDBRANCH   9  13
BRANCH   1  23
ATOM     20  C   UNL     1      19.264   1.825  51.345  0.00  0.00    +0.000 A 
ATOM     21  C   UNL     1      20.000   2.603  52.243  0.00  0.00    +0.000 A 
ATOM     22  C   UNL     1      21.250   2.182  52.714  0.00  0.00    +0.000 A 
ATOM     23  C   UNL     1      21.826   0.999  52.257  0.00  0.00    +0.000 A 
ATOM     24  C   UNL     1      21.109   0.251  51.304  0.00  0.00    +0.000 A 
ATOM     25  C   UNL     1      19.840   0.652  50.860  0.00  0.00    +0.000 A 
BRANCH  20  28
ATOM     26  C   UNL     1      16.810   1.462  51.291  0.00  0.00    +0.000 C 
ATOM     27  O   UNL     1      16.723   0.547  52.094  0.00  0.00    +0.000 OA
ATOM     28  N   UNL     1      17.951   2.133  50.942  0.00  0.00    +0.000 N 
ATOM     29  H   UNL     1      17.842   2.910  50.347  0.00  0.00    +0.000 HD
BRANCH  26  30
ATOM     30  O   UNL     1      15.758   1.961  50.589  0.00  0.00    +0.000 OA
BRANCH  30  32
ATOM     31  C   UNL     1      15.468   3.643  52.363  0.00  0.00    +0.000 C 
ATOM     32  C   UNL     1      14.792   2.802  51.270  0.00  0.00    +0.000 C 
ATOM     33  C   UNL     1      13.616   1.977  51.823  0.00  0.00    +0.000 C 
ATOM     34  C   UNL     1      14.238   3.758  50.204  0.00  0.00    +0.000 C 
ENDBRANCH  30  32
ENDBRANCH  26  30
ENDBRANCH  20  28
ENDBRANCH   1  23
TORSDOF 5
ENDMDL
MODEL 8
REMARK VINA RESULT:    -7.979      3.478      8.037
REMARK INTER + INTRA:         -11.210
REMARK INTER:                 -10.562
REMARK INTRA:                  -0.648
REMARK UNBOUND:                -0.898
REMARK  Name = 
REMARK  8 active torsions:
REMARK  status: ('A' for Active; 'I' for Inactive)
REMARK    1  A    between atoms: C_1  and  C_2
REMARK    2  A    between atoms: C_2  and  C_3
REMARK    3  A    between atoms: C_2  and  C_4
REMARK    4  A    between atoms: C_2  and  O_5
REMARK    5  A    between atoms: O_5  and  C_6
REMARK    6  A    between atoms: N_8  and  C_9
REMARK    7  A    between atoms: C_12  and  C_13
REMARK    8  A    between atoms: N_21  and  C_22
REMARK                            x       y       z     vdW  Elec       q    Type
REMARK                         _______ _______ _______ _____ _____    ______ ____
ROOT
ATOM      1  C   UNL     1      22.861   4.380  48.377  0.00  0.00    +0.000 A 
ATOM      2  N   UNL     1      21.840   3.898  47.576  0.00  0.00    +0.000 N 
ATOM      3  N   UNL     1      21.304   4.777  46.726  0.00  0.00    +0.000 NA
ATOM      4  C   UNL     1      22.045   5.867  46.903  0.00  0.00    +0.000 A 
ATOM      5  N   UNL     1      21.895   7.024  46.223  0.00  0.00    +0.000 NA
ATOM      6  C   UNL     1      22.818   7.929  46.600  0.00  0.00    +0.000 A 
ATOM      7  N   UNL     1      23.824   7.820  47.514  0.00  0.00    +0.000 NA
ATOM      8  C   UNL     1      23.987   6.673  48.245  0.00  0.00    +0.000 A 
ATOM      9  N   UNL     1      24.980   6.616  49.228  0.00  0.00    +0.000 N 
ATOM     10  C   UNL     1      23.046   5.675  47.910  0.00  0.00    +0.000 A 
ATOM     11  H   UNL     1      21.530   2.966  47.629  0.00  0.00    +0.000 HD
ATOM     12  H   UNL     1      24.815   5.989  49.971  0.00  0.00    +0.000 HD
ENDROOT
BRANCH   9  13
ATOM     13  C   UNL     1      26.186   7.341  49.291  0.00  0.00    +0.000 A 
ATOM     14  C   UNL     1      26.336   8.471  50.113  0.00  0.00    +0.000 A 
ATOM     15  C   UNL     1      27.524   9.209  50.128  0.00  0.00    +0.000 A 
ATOM     16  C   UNL     1      28.593   8.822  49.325  0.00  0.00    +0.000 A 
ATOM     17  C   UNL     1      28.462   7.698  48.513  0.00  0.00    +0.000 A 
ATOM     18 CL   UNL     1      29.783   7.209  47.522  0.00  0.00    +0.000 Cl
ATOM     19  C   UNL     1      27.270   6.965  48.489  0.00  0.00    +0.000 A 
ENDBRANCH   9  13
BRANCH   1  23
ATOM     20  C   UNL     1      24.734   1.948  51.399  0.00  0.00    +0.000 A 
ATOM     21  C   UNL     1      23.344   1.977  51.265  0.00  0.00    +0.000 A 
ATOM     22  C   UNL     1      22.725   2.755  50.276  0.00  0.00    +0.000 A 
ATOM     23  C   UNL     1      23.480   3.480  49.359  0.00  0.00    +0.000 A 
ATOM     24  C   UNL     1      24.882   3.397  49.459  0.00  0.00    +0.000 A 
ATOM     25  C   UNL     1      25.502   2.649  50.471  0.00  0.00    +0.000 A 
BRANCH  20  28
ATOM     26  C   UNL     1      25.867   1.862  53.605  0.00  0.00    +0.000 C 
ATOM     27  O   UNL     1      25.691   3.014  53.968  0.00  0.00    +0.000 OA
ATOM     28  N   UNL     1      25.402   1.292  52.450  0.00  0.00    +0.000 N 
ATOM     29  H   UNL     1      25.551   0.325  52.345  0.00  0.00    +0.000 HD
BRANCH  26  30
ATOM     30  O   UNL     1      26.585   0.944  54.306  0.00  0.00    +0.000 OA
BRANCH  30  32
ATOM     31  C   UNL     1      28.615   1.831  53.233  0.00  0.00    +0.000 C 
ATOM     32  C   UNL     1      27.926   0.611  53.862  0.00  0.00    +0.000 C 
ATOM     33  C   UNL     1      27.922  -0.601  52.915  0.00  0.00    +0.000 C 
ATOM     34  C   UNL     1      28.704   0.220  55.126  0.00  0.00    +0.000 C 
ENDBRANCH  30  32
ENDBRANCH  26  30
ENDBRANCH  20  28
ENDBRANCH   1  23
TORSDOF 5
ENDMDL
MODEL 9
REMARK VINA RESULT:    -7.915      3.601      5.866
REMARK INTER + INTRA:         -11.126
REMARK INTER:                 -10.447
REMARK INTRA:                  -0.680
REMARK UNBOUND:                -0.898
REMARK  Name = 
REMARK  8 active torsions:
REMARK  status: ('A' for Active; 'I' for Inactive)
REMARK    1  A    between atoms: C_1  and  C_2
REMARK    2  A    between atoms: C_2  and  C_3
REMARK    3  A    between atoms: C_2  and  C_4
REMARK    4  A    between atoms: C_2  and  O_5
REMARK    5  A    between atoms: O_5  and  C_6
REMARK    6  A    between atoms: N_8  and  C_9
REMARK    7  A    between atoms: C_12  and  C_13
REMARK    8  A    between atoms: N_21  and  C_22
REMARK                            x       y       z     vdW  Elec       q    Type
REMARK                         _______ _______ _______ _____ _____    ______ ____
ROOT
ATOM      1  C   UNL     1      23.637   0.979  53.191  0.00  0.00    +0.000 A 
ATOM      2  N   UNL     1      24.636   0.205  53.756  0.00  0.00    +0.000 N 
ATOM      3  N   UNL     1      24.226  -0.854  54.456  0.00  0.00    +0.000 NA
ATOM      4  C   UNL     1      22.906  -0.840  54.289  0.00  0.00    +0.000 A 
ATOM      5  N   UNL     1      22.053  -1.757  54.793  0.00  0.00    +0.000 NA
ATOM      6  C   UNL     1      20.785  -1.493  54.420  0.00  0.00    +0.000 A 
ATOM      7  N   UNL     1      20.298  -0.488  53.638  0.00  0.00    +0.000 NA
ATOM      8  C   UNL     1      21.130   0.478  53.135  0.00  0.00    +0.000 A 
ATOM      9  N   UNL     1      20.592   1.537  52.399  0.00  0.00    +0.000 N 
ATOM     10  C   UNL     1      22.480   0.272  53.492  0.00  0.00    +0.000 A 
ATOM     11  H   UNL     1      25.590   0.423  53.647  0.00  0.00    +0.000 HD
ATOM     12  H   UNL     1      21.110   2.376  52.410  0.00  0.00    +0.000 HD
ENDROOT
BRANCH   9  13
ATOM     13  C   UNL     1      19.403   1.558  51.643  0.00  0.00    +0.000 A 
ATOM     14  C   UNL     1      18.996   0.462  50.864  0.00  0.00    +0.000 A 
ATOM     15  C   UNL     1      17.837   0.515  50.081  0.00  0.00    +0.000 A 
ATOM     16  C   UNL     1      17.056   1.667  50.073  0.00  0.00    +0.000 A 
ATOM     17  C   UNL     1      17.442   2.756  50.849  0.00  0.00    +0.000 A 
ATOM     18 CL   UNL     1      16.477   4.182  50.849  0.00  0.00    +0.000 Cl
ATOM     19  C   UNL     1      18.606   2.708  51.624  0.00  0.00    +0.000 A 
ENDBRANCH   9  13
BRANCH   1  23
ATOM     20  C   UNL     1      24.571   4.421  50.776  0.00  0.00    +0.000 A 
ATOM     21  C   UNL     1      23.770   4.542  51.914  0.00  0.00    +0.000 A 
ATOM     22  C   UNL     1      23.471   3.431  52.713  0.00  0.00    +0.000 A 
ATOM     23  C   UNL     1      24.010   2.179  52.430  0.00  0.00    +0.000 A 
ATOM     24  C   UNL     1      24.868   2.076  51.319  0.00  0.00    +0.000 A 
ATOM     25  C   UNL     1      25.138   3.179  50.496  0.00  0.00    +0.000 A 
BRANCH  20  28
ATOM     26  C   UNL     1      24.171   5.659  48.662  0.00  0.00    +0.000 C 
ATOM     27  O   UNL     1      23.239   5.007  48.219  0.00  0.00    +0.000 OA
ATOM     28  N   UNL     1      24.796   5.471  49.865  0.00  0.00    +0.000 N 
ATOM     29  H   UNL     1      25.473   6.139  50.120  0.00  0.00    +0.000 HD
BRANCH  26  30
ATOM     30  O   UNL     1      24.758   6.693  48.003  0.00  0.00    +0.000 OA
BRANCH  30  32
ATOM     31  C   UNL     1      23.151   8.182  49.123  0.00  0.00    +0.000 C 
ATOM     32  C   UNL     1      24.051   7.955  47.900  0.00  0.00    +0.000 C 
ATOM     33  C   UNL     1      23.267   8.057  46.580  0.00  0.00    +0.000 C 
ATOM     34  C   UNL     1      25.132   9.045  47.892  0.00  0.00    +0.000 C 
ENDBRANCH  30  32
ENDBRANCH  26  30
ENDBRANCH  20  28
ENDBRANCH   1  23
TORSDOF 5
ENDMDL
