MODEL 1
REMARK VINA RESULT:    -8.031      0.000      0.000
REMARK INTER + INTRA:          -9.077
REMARK INTER:                  -8.500
REMARK INTRA:                  -0.577
REMARK UNBOUND:                -0.577
REMARK  Name = 
REMARK  1 active torsions:
REMARK  status: ('A' for Active; 'I' for Inactive)
REMARK    1  A    between atoms: C_9  and  N_10
REMARK                            x       y       z     vdW  Elec       q    Type
REMARK                         _______ _______ _______ _____ _____    ______ ____
ROOT
ATOM      1  N   UNL     1      22.257   3.926  52.368  0.00  0.00    +0.000 N 
ATOM      2  C   UNL     1      23.348   3.749  51.472  0.00  0.00    +0.000 A 
ATOM      3  N   UNL     1      23.133   4.071  50.188  0.00  0.00    +0.000 NA
ATOM      4  C   UNL     1      24.090   3.721  49.328  0.00  0.00    +0.000 A 
ATOM      5  N   UNL     1      25.300   3.250  49.640  0.00  0.00    +0.000 NA
ATOM      6  C   UNL     1      25.505   2.947  50.921  0.00  0.00    +0.000 A 
ATOM      7  C   UNL     1      26.674   2.275  51.224  0.00  0.00    +0.000 A 
ATOM      8  C   UNL     1      26.734   1.546  52.400  0.00  0.00    +0.000 A 
ATOM      9  C   UNL     1      25.695   1.625  53.331  0.00  0.00    +0.000 A 
ATOM     10  C   UNL     1      24.677   2.537  53.188  0.00  0.00    +0.000 A 
ATOM     11  C   UNL     1      24.524   3.123  51.912  0.00  0.00    +0.000 A 
ATOM     12  O   UNL     1      25.483   0.518  54.140  0.00  0.00    +0.000 OA
ATOM     13  C   UNL     1      25.581  -0.596  53.224  0.00  0.00    +0.000 C 
ATOM     14  C   UNL     1      27.008  -0.702  52.662  0.00  0.00    +0.000 C 
ATOM     15  O   UNL     1      27.675   0.560  52.485  0.00  0.00    +0.000 OA
ATOM     16  H   UNL     1      22.370   4.469  53.181  0.00  0.00    +0.000 HD
ENDROOT
BRANCH   1  25
ATOM     17  F   UNL     1      21.600   1.246  53.109  0.00  0.00    +0.000 F 
ATOM     18  C   UNL     1      20.679   1.992  52.477  0.00  0.00    +0.000 A 
ATOM     19  C   UNL     1      19.428   1.436  52.214  0.00  0.00    +0.000 A 
ATOM     20 BR   UNL     1      19.068  -0.361  52.673  0.00  0.00    +0.000 Br
ATOM     21  C   UNL     1      18.433   2.205  51.610  0.00  0.00    +0.000 A 
ATOM     22  C   UNL     1      18.707   3.527  51.270  0.00  0.00    +0.000 A 
ATOM     23 CL   UNL     1      17.473   4.489  50.551  0.00  0.00    +0.000 Cl
ATOM     24  C   UNL     1      19.968   4.086  51.506  0.00  0.00    +0.000 A 
ATOM     25  C   UNL     1      20.987   3.313  52.087  0.00  0.00    +0.000 A 
ENDBRANCH   1  25
TORSDOF 1
ENDMDL
MODEL 2
REMARK VINA RESULT:    -7.889      3.625      4.883
REMARK INTER + INTRA:          -8.927
REMARK INTER:                  -8.938
REMARK INTRA:                   0.010
REMARK UNBOUND:                -0.577
REMARK  Name = 
REMARK  1 active torsions:
REMARK  status: ('A' for Active; 'I' for Inactive)
REMARK    1  A    between atoms: C_9  and  N_10
REMARK                            x       y       z     vdW  Elec       q    Type
REMARK                         _______ _______ _______ _____ _____    ______ ____
ROOT
ATOM      1  N   UNL     1      24.573   3.196  50.075  0.00  0.00    +0.000 N 
ATOM      2  C   UNL     1      24.206   2.284  51.104  0.00  0.00    +0.000 A 
ATOM      3  N   UNL     1      22.947   2.363  51.561  0.00  0.00    +0.000 NA
ATOM      4  C   UNL     1      22.673   1.645  52.649  0.00  0.00    +0.000 A 
ATOM      5  N   UNL     1      23.465   0.732  53.215  0.00  0.00    +0.000 NA
ATOM      6  C   UNL     1      24.709   0.654  52.744  0.00  0.00    +0.000 A 
ATOM      7  C   UNL     1      25.595  -0.140  53.447  0.00  0.00    +0.000 A 
ATOM      8  C   UNL     1      26.952   0.091  53.301  0.00  0.00    +0.000 A 
ATOM      9  C   UNL     1      27.413   0.994  52.340  0.00  0.00    +0.000 A 
ATOM     10  C   UNL     1      26.560   1.550  51.416  0.00  0.00    +0.000 A 
ATOM     11  C   UNL     1      25.178   1.464  51.696  0.00  0.00    +0.000 A 
ATOM     12  O   UNL     1      28.618   1.632  52.596  0.00  0.00    +0.000 OA
ATOM     13  C   UNL     1      28.514   2.012  53.986  0.00  0.00    +0.000 C 
ATOM     14  C   UNL     1      28.456   0.760  54.878  0.00  0.00    +0.000 C 
ATOM     15  O   UNL     1      27.780  -0.363  54.287  0.00  0.00    +0.000 OA
ATOM     16  H   UNL     1      24.956   2.860  49.234  0.00  0.00    +0.000 HD
ENDROOT
BRANCH   1  25
ATOM     17  F   UNL     1      26.621   5.136  49.623  0.00  0.00    +0.000 F 
ATOM     18  C   UNL     1      25.405   5.550  50.017  0.00  0.00    +0.000 A 
ATOM     19  C   UNL     1      25.181   6.916  50.181  0.00  0.00    +0.000 A 
ATOM     20 BR   UNL     1      26.589   8.151  49.926  0.00  0.00    +0.000 Br
ATOM     21  C   UNL     1      23.914   7.381  50.535  0.00  0.00    +0.000 A 
ATOM     22  C   UNL     1      22.882   6.465  50.727  0.00  0.00    +0.000 A 
ATOM     23 CL   UNL     1      21.310   7.034  51.134  0.00  0.00    +0.000 Cl
ATOM     24  C   UNL     1      23.105   5.090  50.590  0.00  0.00    +0.000 A 
ATOM     25  C   UNL     1      24.383   4.609  50.262  0.00  0.00    +0.000 A 
ENDBRANCH   1  25
TORSDOF 1
ENDMDL
MODEL 3
REMARK VINA RESULT:    -7.834      1.870      2.112
REMARK INTER + INTRA:          -8.869
REMARK INTER:                  -8.362
REMARK INTRA:                  -0.507
REMARK UNBOUND:                -0.577
REMARK  Name = 
REMARK  1 active torsions:
REMARK  status: ('A' for Active; 'I' for Inactive)
REMARK    1  A    between atoms: C_9  and  N_10
REMARK                            x       y       z     vdW  Elec       q    Type
REMARK                         _______ _______ _______ _____ _____    ______ ____
ROOT
ATOM      1  N   UNL     1      22.319   3.883  52.394  0.00  0.00    +0.000 N 
ATOM      2  C   UNL     1      23.397   3.688  51.487  0.00  0.00    +0.000 A 
ATOM      3  N   UNL     1      23.178   4.026  50.207  0.00  0.00    +0.000 NA
ATOM      4  C   UNL     1      24.118   3.661  49.335  0.00  0.00    +0.000 A 
ATOM      5  N   UNL     1      25.319   3.158  49.631  0.00  0.00    +0.000 NA
ATOM      6  C   UNL     1      25.529   2.839  50.907  0.00  0.00    +0.000 A 
ATOM      7  C   UNL     1      26.684   2.137  51.194  0.00  0.00    +0.000 A 
ATOM      8  C   UNL     1      26.737   1.396  52.362  0.00  0.00    +0.000 A 
ATOM      9  C   UNL     1      25.710   1.491  53.304  0.00  0.00    +0.000 A 
ATOM     10  C   UNL     1      24.712   2.429  53.178  0.00  0.00    +0.000 A 
ATOM     11  C   UNL     1      24.561   3.030  51.909  0.00  0.00    +0.000 A 
ATOM     12  O   UNL     1      25.479   0.383  54.105  0.00  0.00    +0.000 OA
ATOM     13  C   UNL     1      25.541  -0.725  53.179  0.00  0.00    +0.000 C 
ATOM     14  C   UNL     1      26.960  -0.860  52.602  0.00  0.00    +0.000 C 
ATOM     15  O   UNL     1      27.655   0.387  52.429  0.00  0.00    +0.000 OA
ATOM     16  H   UNL     1      22.453   4.416  53.210  0.00  0.00    +0.000 HD
ENDROOT
BRANCH   1  25
ATOM     17  F   UNL     1      20.241   5.249  50.987  0.00  0.00    +0.000 F 
ATOM     18  C   UNL     1      20.026   3.992  51.410  0.00  0.00    +0.000 A 
ATOM     19  C   UNL     1      18.798   3.392  51.137  0.00  0.00    +0.000 A 
ATOM     20 BR   UNL     1      17.437   4.363  50.255  0.00  0.00    +0.000 Br
ATOM     21  C   UNL     1      18.565   2.070  51.514  0.00  0.00    +0.000 A 
ATOM     22  C   UNL     1      19.570   1.361  52.169  0.00  0.00    +0.000 A 
ATOM     23 CL   UNL     1      19.299  -0.280  52.610  0.00  0.00    +0.000 Cl
ATOM     24  C   UNL     1      20.797   1.964  52.470  0.00  0.00    +0.000 A 
ATOM     25  C   UNL     1      21.032   3.304  52.121  0.00  0.00    +0.000 A 
ENDBRANCH   1  25
TORSDOF 1
ENDMDL
MODEL 4
REMARK VINA RESULT:    -7.711      2.976      4.110
REMARK INTER + INTRA:          -8.738
REMARK INTER:                  -8.402
REMARK INTRA:                  -0.337
REMARK UNBOUND:                -0.577
REMARK  Name = 
REMARK  1 active torsions:
REMARK  status: ('A' for Active; 'I' for Inactive)
REMARK    1  A    between atoms: C_9  and  N_10
REMARK                            x       y       z     vdW  Elec       q    Type
REMARK                         _______ _______ _______ _____ _____    ______ ____
ROOT
ATOM      1  N   UNL     1      23.697   1.840  50.740  0.00  0.00    +0.000 N 
ATOM      2  C   UNL     1      23.892   0.936  51.821  0.00  0.00    +0.000 A 
ATOM      3  N   UNL     1      22.800   0.583  52.517  0.00  0.00    +0.000 NA
ATOM      4  C   UNL     1      23.018  -0.104  53.639  0.00  0.00    +0.000 A 
ATOM      5  N   UNL     1      24.183  -0.619  54.038  0.00  0.00    +0.000 NA
ATOM      6  C   UNL     1      25.257  -0.271  53.331  0.00  0.00    +0.000 A 
ATOM      7  C   UNL     1      26.488  -0.631  53.846  0.00  0.00    +0.000 A 
ATOM      8  C   UNL     1      27.610   0.069  53.435  0.00  0.00    +0.000 A 
ATOM      9  C   UNL     1      27.516   1.004  52.401  0.00  0.00    +0.000 A 
ATOM     10  C   UNL     1      26.364   1.139  51.664  0.00  0.00    +0.000 A 
ATOM     11  C   UNL     1      25.190   0.575  52.210  0.00  0.00    +0.000 A 
ATOM     12  O   UNL     1      28.421   2.056  52.414  0.00  0.00    +0.000 OA
ATOM     13  C   UNL     1      28.438   2.473  53.798  0.00  0.00    +0.000 C 
ATOM     14  C   UNL     1      29.015   1.357  54.685  0.00  0.00    +0.000 C 
ATOM     15  O   UNL     1      28.712   0.024  54.238  0.00  0.00    +0.000 OA
ATOM     16  H   UNL     1      24.017   1.606  49.839  0.00  0.00    +0.000 HD
ENDROOT
BRANCH   1  25
ATOM     17  F   UNL     1      25.058   4.350  50.849  0.00  0.00    +0.000 F 
ATOM     18  C   UNL     1      23.722   4.324  50.994  0.00  0.00    +0.000 A 
ATOM     19  C   UNL     1      23.044   5.527  51.181  0.00  0.00    +0.000 A 
ATOM     20 BR   UNL     1      24.000   7.152  51.305  0.00  0.00    +0.000 Br
ATOM     21  C   UNL     1      21.652   5.539  51.278  0.00  0.00    +0.000 A 
ATOM     22  C   UNL     1      20.953   4.337  51.192  0.00  0.00    +0.000 A 
ATOM     23 CL   UNL     1      19.235   4.349  51.282  0.00  0.00    +0.000 Cl
ATOM     24  C   UNL     1      21.628   3.122  51.030  0.00  0.00    +0.000 A 
ATOM     25  C   UNL     1      23.031   3.095  50.959  0.00  0.00    +0.000 A 
ENDBRANCH   1  25
TORSDOF 1
ENDMDL
MODEL 5
REMARK VINA RESULT:    -7.653      3.835      5.437
REMARK INTER + INTRA:          -8.677
REMARK INTER:                  -8.048
REMARK INTRA:                  -0.629
REMARK UNBOUND:                -0.577
REMARK  Name = 
REMARK  1 active torsions:
REMARK  status: ('A' for Active; 'I' for Inactive)
REMARK    1  A    between atoms: C_9  and  N_10
REMARK                            x       y       z     vdW  Elec       q    Type
REMARK                         _______ _______ _______ _____ _____    ______ ____
ROOT
ATOM      1  N   UNL     1      24.137   1.467  51.712  0.00  0.00    +0.000 N 
ATOM      2  C   UNL     1      24.167   2.888  51.778  0.00  0.00    +0.000 A 
ATOM      3  N   UNL     1      24.209   3.435  53.002  0.00  0.00    +0.000 NA
ATOM      4  C   UNL     1      24.041   4.756  53.060  0.00  0.00    +0.000 A 
ATOM      5  N   UNL     1      24.012   5.596  52.023  0.00  0.00    +0.000 NA
ATOM      6  C   UNL     1      23.984   5.041  50.812  0.00  0.00    +0.000 A 
ATOM      7  C   UNL     1      23.753   5.885  49.743  0.00  0.00    +0.000 A 
ATOM      8  C   UNL     1      23.263   5.346  48.565  0.00  0.00    +0.000 A 
ATOM      9  C   UNL     1      23.163   3.961  48.413  0.00  0.00    +0.000 A 
ATOM     10  C   UNL     1      23.690   3.101  49.348  0.00  0.00    +0.000 A 
ATOM     11  C   UNL     1      24.001   3.649  50.612  0.00  0.00    +0.000 A 
ATOM     12  O   UNL     1      22.180   3.486  47.557  0.00  0.00    +0.000 OA
ATOM     13  C   UNL     1      21.023   4.285  47.892  0.00  0.00    +0.000 C 
ATOM     14  C   UNL     1      21.272   5.761  47.536  0.00  0.00    +0.000 C 
ATOM     15  O   UNL     1      22.635   6.191  47.697  0.00  0.00    +0.000 OA
ATOM     16  H   UNL     1      24.805   0.986  51.174  0.00  0.00    +0.000 HD
ENDROOT
BRANCH   1  25
ATOM     17  F   UNL     1      21.412   1.286  50.873  0.00  0.00    +0.000 F 
ATOM     18  C   UNL     1      21.795   0.644  51.989  0.00  0.00    +0.000 A 
ATOM     19  C   UNL     1      20.851  -0.100  52.695  0.00  0.00    +0.000 A 
ATOM     20 BR   UNL     1      19.048  -0.136  52.128  0.00  0.00    +0.000 Br
ATOM     21  C   UNL     1      21.231  -0.823  53.826  0.00  0.00    +0.000 A 
ATOM     22  C   UNL     1      22.560  -0.787  54.242  0.00  0.00    +0.000 A 
ATOM     23 CL   UNL     1      23.041  -1.701  55.618  0.00  0.00    +0.000 Cl
ATOM     24  C   UNL     1      23.510  -0.022  53.554  0.00  0.00    +0.000 A 
ATOM     25  C   UNL     1      23.132   0.732  52.431  0.00  0.00    +0.000 A 
ENDBRANCH   1  25
TORSDOF 1
ENDMDL
MODEL 6
REMARK VINA RESULT:    -7.637      3.922      5.575
REMARK INTER + INTRA:          -8.660
REMARK INTER:                  -8.132
REMARK INTRA:                  -0.528
REMARK UNBOUND:                -0.577
REMARK  Name = 
REMARK  1 active torsions:
REMARK  status: ('A' for Active; 'I' for Inactive)
REMARK    1  A    between atoms: C_9  and  N_10
REMARK                            x       y       z     vdW  Elec       q    Type
REMARK                         _______ _______ _______ _____ _____    ______ ____
ROOT
ATOM      1  N   UNL     1      22.087   2.464  51.824  0.00  0.00    +0.000 N 
ATOM      2  C   UNL     1      22.081   2.679  50.418  0.00  0.00    +0.000 A 
ATOM      3  N   UNL     1      21.764   1.627  49.648  0.00  0.00    +0.000 NA
ATOM      4  C   UNL     1      21.950   1.783  48.337  0.00  0.00    +0.000 A 
ATOM      5  N   UNL     1      22.246   2.924  47.711  0.00  0.00    +0.000 NA
ATOM      6  C   UNL     1      22.545   3.965  48.486  0.00  0.00    +0.000 A 
ATOM      7  C   UNL     1      23.045   5.089  47.858  0.00  0.00    +0.000 A 
ATOM      8  C   UNL     1      23.785   5.992  48.602  0.00  0.00    +0.000 A 
ATOM      9  C   UNL     1      23.880   5.850  49.989  0.00  0.00    +0.000 A 
ATOM     10  C   UNL     1      23.125   4.921  50.664  0.00  0.00    +0.000 A 
ATOM     11  C   UNL     1      22.538   3.896  49.890  0.00  0.00    +0.000 A 
ATOM     12  O   UNL     1      25.025   6.342  50.599  0.00  0.00    +0.000 OA
ATOM     13  C   UNL     1      26.091   5.900  49.729  0.00  0.00    +0.000 C 
ATOM     14  C   UNL     1      25.974   6.579  48.354  0.00  0.00    +0.000 C 
ATOM     15  O   UNL     1      24.624   6.831  47.927  0.00  0.00    +0.000 OA
ATOM     16  H   UNL     1      21.552   3.045  52.413  0.00  0.00    +0.000 HD
ENDROOT
BRANCH   1  25
ATOM     17  F   UNL     1      24.898   2.182  51.398  0.00  0.00    +0.000 F 
ATOM     18  C   UNL     1      24.263   1.291  52.177  0.00  0.00    +0.000 A 
ATOM     19  C   UNL     1      25.001   0.263  52.761  0.00  0.00    +0.000 A 
ATOM     20 BR   UNL     1      26.847   0.088  52.397  0.00  0.00    +0.000 Br
ATOM     21  C   UNL     1      24.381  -0.645  53.619  0.00  0.00    +0.000 A 
ATOM     22  C   UNL     1      23.019  -0.515  53.879  0.00  0.00    +0.000 A 
ATOM     23 CL   UNL     1      22.254  -1.614  54.960  0.00  0.00    +0.000 Cl
ATOM     24  C   UNL     1      22.264   0.499  53.277  0.00  0.00    +0.000 A 
ATOM     25  C   UNL     1      22.872   1.401  52.389  0.00  0.00    +0.000 A 
ENDBRANCH   1  25
TORSDOF 1
ENDMDL
MODEL 7
REMARK VINA RESULT:    -7.625      4.245      6.445
REMARK INTER + INTRA:          -8.648
REMARK INTER:                  -8.246
REMARK INTRA:                  -0.402
REMARK UNBOUND:                -0.577
REMARK  Name = 
REMARK  1 active torsions:
REMARK  status: ('A' for Active; 'I' for Inactive)
REMARK    1  A    between atoms: C_9  and  N_10
REMARK                            x       y       z     vdW  Elec       q    Type
REMARK                         _______ _______ _______ _____ _____    ______ ____
ROOT
ATOM      1  N   UNL     1      25.558   3.295  51.199  0.00  0.00    +0.000 N 
ATOM      2  C   UNL     1      24.402   4.109  51.361  0.00  0.00    +0.000 A 
ATOM      3  N   UNL     1      24.109   4.501  52.610  0.00  0.00    +0.000 NA
ATOM      4  C   UNL     1      22.927   5.094  52.775  0.00  0.00    +0.000 A 
ATOM      5  N   UNL     1      22.097   5.489  51.807  0.00  0.00    +0.000 NA
ATOM      6  C   UNL     1      22.406   5.105  50.570  0.00  0.00    +0.000 A 
ATOM      7  C   UNL     1      21.459   5.333  49.590  0.00  0.00    +0.000 A 
ATOM      8  C   UNL     1      21.507   4.576  48.432  0.00  0.00    +0.000 A 
ATOM      9  C   UNL     1      22.585   3.719  48.195  0.00  0.00    +0.000 A 
ATOM     10  C   UNL     1      23.691   3.723  49.010  0.00  0.00    +0.000 A 
ATOM     11  C   UNL     1      23.548   4.341  50.272  0.00  0.00    +0.000 A 
ATOM     12  O   UNL     1      22.345   2.601  47.409  0.00  0.00    +0.000 OA
ATOM     13  C   UNL     1      21.088   2.096  47.911  0.00  0.00    +0.000 C 
ATOM     14  C   UNL     1      19.959   3.103  47.635  0.00  0.00    +0.000 C 
ATOM     15  O   UNL     1      20.364   4.482  47.690  0.00  0.00    +0.000 OA
ATOM     16  H   UNL     1      26.262   3.561  50.565  0.00  0.00    +0.000 HD
ENDROOT
BRANCH   1  25
ATOM     17  F   UNL     1      27.982   2.527  52.502  0.00  0.00    +0.000 F 
ATOM     18  C   UNL     1      26.903   1.733  52.610  0.00  0.00    +0.000 A 
ATOM     19  C   UNL     1      27.001   0.566  53.365  0.00  0.00    +0.000 A 
ATOM     20 BR   UNL     1      28.646   0.076  54.155  0.00  0.00    +0.000 Br
ATOM     21  C   UNL     1      25.884  -0.250  53.541  0.00  0.00    +0.000 A 
ATOM     22  C   UNL     1      24.675   0.114  52.951  0.00  0.00    +0.000 A 
ATOM     23 CL   UNL     1      23.286  -0.873  53.190  0.00  0.00    +0.000 Cl
ATOM     24  C   UNL     1      24.574   1.271  52.170  0.00  0.00    +0.000 A 
ATOM     25  C   UNL     1      25.700   2.085  51.962  0.00  0.00    +0.000 A 
ENDBRANCH   1  25
TORSDOF 1
ENDMDL
MODEL 8
REMARK VINA RESULT:    -7.613      4.065      6.455
REMARK INTER + INTRA:          -8.635
REMARK INTER:                  -8.001
REMARK INTRA:                  -0.634
REMARK UNBOUND:                -0.577
REMARK  Name = 
REMARK  1 active torsions:
REMARK  status: ('A' for Active; 'I' for Inactive)
REMARK    1  A    between atoms: C_9  and  N_10
REMARK                            x       y       z     vdW  Elec       q    Type
REMARK                         _______ _______ _______ _____ _____    ______ ____
ROOT
ATOM      1  N   UNL     1      25.559   3.110  50.170  0.00  0.00    +0.000 N 
ATOM      2  C   UNL     1      24.616   4.176  50.190  0.00  0.00    +0.000 A 
ATOM      3  N   UNL     1      24.814   5.139  51.103  0.00  0.00    +0.000 NA
ATOM      4  C   UNL     1      23.826   6.024  51.243  0.00  0.00    +0.000 A 
ATOM      5  N   UNL     1      22.756   6.147  50.454  0.00  0.00    +0.000 NA
ATOM      6  C   UNL     1      22.579   5.192  49.543  0.00  0.00    +0.000 A 
ATOM      7  C   UNL     1      21.380   5.197  48.858  0.00  0.00    +0.000 A 
ATOM      8  C   UNL     1      20.949   4.022  48.266  0.00  0.00    +0.000 A 
ATOM      9  C   UNL     1      21.788   2.906  48.224  0.00  0.00    +0.000 A 
ATOM     10  C   UNL     1      23.103   2.987  48.617  0.00  0.00    +0.000 A 
ATOM     11  C   UNL     1      23.467   4.112  49.389  0.00  0.00    +0.000 A 
ATOM     12  O   UNL     1      21.183   1.658  48.193  0.00  0.00    +0.000 OA
ATOM     13  C   UNL     1      20.133   1.765  49.180  0.00  0.00    +0.000 C 
ATOM     14  C   UNL     1      19.084   2.797  48.735  0.00  0.00    +0.000 C 
ATOM     15  O   UNL     1      19.617   3.905  47.988  0.00  0.00    +0.000 OA
ATOM     16  H   UNL     1      26.023   2.880  49.334  0.00  0.00    +0.000 HD
ENDROOT
BRANCH   1  25
ATOM     17  F   UNL     1      23.761   1.191  51.288  0.00  0.00    +0.000 F 
ATOM     18  C   UNL     1      24.939   1.414  51.896  0.00  0.00    +0.000 A 
ATOM     19  C   UNL     1      25.249   0.692  53.047  0.00  0.00    +0.000 A 
ATOM     20 BR   UNL     1      23.998  -0.522  53.777  0.00  0.00    +0.000 Br
ATOM     21  C   UNL     1      26.486   0.860  53.668  0.00  0.00    +0.000 A 
ATOM     22  C   UNL     1      27.402   1.761  53.128  0.00  0.00    +0.000 A 
ATOM     23 CL   UNL     1      28.941   1.951  53.873  0.00  0.00    +0.000 Cl
ATOM     24  C   UNL     1      27.089   2.509  51.987  0.00  0.00    +0.000 A 
ATOM     25  C   UNL     1      25.835   2.369  51.370  0.00  0.00    +0.000 A 
ENDBRANCH   1  25
TORSDOF 1
ENDMDL
MODEL 9
REMARK VINA RESULT:    -7.525      3.805      5.521
REMARK INTER + INTRA:          -8.542
REMARK INTER:                  -8.076
REMARK INTRA:                  -0.466
REMARK UNBOUND:                -0.577
REMARK  Name = 
REMARK  1 active torsions:
REMARK  status: ('A' for Active; 'I' for Inactive)
REMARK    1  A    between atoms: C_9  and  N_10
REMARK                            x       y       z     vdW  Elec       q    Type
REMARK                         _______ _______ _______ _____ _____    ______ ____
ROOT
ATOM      1  N   UNL     1      22.136   2.625  51.850  0.00  0.00    +0.000 N 
ATOM      2  C   UNL     1      22.128   2.810  50.439  0.00  0.00    +0.000 A 
ATOM      3  N   UNL     1      21.859   1.729  49.691  0.00  0.00    +0.000 NA
ATOM      4  C   UNL     1      22.045   1.866  48.378  0.00  0.00    +0.000 A 
ATOM      5  N   UNL     1      22.298   3.005  47.728  0.00  0.00    +0.000 NA
ATOM      6  C   UNL     1      22.551   4.073  48.483  0.00  0.00    +0.000 A 
ATOM      7  C   UNL     1      23.008   5.203  47.834  0.00  0.00    +0.000 A 
ATOM      8  C   UNL     1      23.706   6.151  48.563  0.00  0.00    +0.000 A 
ATOM      9  C   UNL     1      23.800   6.041  49.952  0.00  0.00    +0.000 A 
ATOM     10  C   UNL     1      23.079   5.097  50.643  0.00  0.00    +0.000 A 
ATOM     11  C   UNL     1      22.539   4.032  49.889  0.00  0.00    +0.000 A 
ATOM     12  O   UNL     1      24.921   6.592  50.558  0.00  0.00    +0.000 OA
ATOM     13  C   UNL     1      26.009   6.176  49.702  0.00  0.00    +0.000 C 
ATOM     14  C   UNL     1      25.871   6.821  48.312  0.00  0.00    +0.000 C 
ATOM     15  O   UNL     1      24.514   7.009  47.874  0.00  0.00    +0.000 OA
ATOM     16  H   UNL     1      21.574   3.195  52.424  0.00  0.00    +0.000 HD
ENDROOT
BRANCH   1  25
ATOM     17  F   UNL     1      21.158   0.680  53.701  0.00  0.00    +0.000 F 
ATOM     18  C   UNL     1      22.452   0.646  53.341  0.00  0.00    +0.000 A 
ATOM     19  C   UNL     1      23.272  -0.347  53.875  0.00  0.00    +0.000 A 
ATOM     20 BR   UNL     1      22.587  -1.571  55.141  0.00  0.00    +0.000 Br
ATOM     21  C   UNL     1      24.605  -0.442  53.477  0.00  0.00    +0.000 A 
ATOM     22  C   UNL     1      25.106   0.467  52.548  0.00  0.00    +0.000 A 
ATOM     23 CL   UNL     1      26.742   0.335  52.032  0.00  0.00    +0.000 Cl
ATOM     24  C   UNL     1      24.296   1.482  52.026  0.00  0.00    +0.000 A 
ATOM     25  C   UNL     1      22.960   1.606  52.440  0.00  0.00    +0.000 A 
ENDBRANCH   1  25
TORSDOF 1
ENDMDL
