REMARK  Name = 
REMARK  12 active torsions:
REMARK  status: ('A' for Active; 'I' for Inactive)
REMARK    1  A    between atoms: C_1  and  O_2
REMARK    2  A    between atoms: O_2  and  C_3
REMARK    3  A    between atoms: C_5  and  N_6
REMARK    4  A    between atoms: C_9  and  N_10
REMARK    5  A    between atoms: C_12  and  C_14
REMARK    6  A    between atoms: C_14  and  O_15
REMARK    7  A    between atoms: C_19  and  C_20
REMARK    8  A    between atoms: C_22  and  N_23
REMARK    9  A    between atoms: N_30  and  C_31
REMARK   10  A    between atoms: C_40  and  P_41
REMARK   11  A    between atoms: P_41  and  C_42
REMARK   12  A    between atoms: P_41  and  C_43
REMARK                            x       y       z     vdW  Elec       q    Type
REMARK                         _______ _______ _______ _____ _____    ______ ____
ROOT
ATOM      1  N   UNL     1       5.004  10.144   6.563  0.00  0.00    +0.000 N 
ATOM      2  C   UNL     1       5.096  10.857   7.756  0.00  0.00    +0.000 A 
ATOM      3  N   UNL     1       4.200  11.820   7.998  0.00  0.00    +0.000 NA
ATOM      4  C   UNL     1       4.341  12.493   9.164  0.00  0.00    +0.000 A 
ATOM      5  C   UNL     1       5.349  12.261  10.076  0.00  0.00    +0.000 A 
ATOM      6 BR   UNL     1       5.481  13.287  11.651  0.00  0.00    +0.000 Br
ATOM      7  C   UNL     1       6.252  11.275   9.734  0.00  0.00    +0.000 A 
ATOM      8  N   UNL     1       7.403  11.022  10.522  0.00  0.00    +0.000 N 
ATOM      9  N   UNL     1       6.101  10.572   8.597  0.00  0.00    +0.000 NA
ATOM     10  H   UNL     1       4.621  10.618   5.791  0.00  0.00    +0.000 HD
ATOM     11  H   UNL     1       7.355  11.251  11.478  0.00  0.00    +0.000 HD
ENDROOT
BRANCH   8  12
ATOM     12  C   UNL     1       8.615  10.470  10.048  0.00  0.00    +0.000 A 
ATOM     13  C   UNL     1       9.010  10.731   8.725  0.00  0.00    +0.000 A 
ATOM     14  C   UNL     1      10.151  10.164   8.174  0.00  0.00    +0.000 A 
ATOM     15  C   UNL     1      10.967   9.356   8.926  0.00  0.00    +0.000 A 
ATOM     16  N   UNL     1      12.048   8.824   8.324  0.00  0.00    +0.000 NA
ATOM     17  C   UNL     1      12.851   8.061   9.085  0.00  0.00    +0.000 A 
ATOM     18  C   UNL     1      12.598   7.858  10.417  0.00  0.00    +0.000 A 
ATOM     19  N   UNL     1      11.510   8.381  11.026  0.00  0.00    +0.000 NA
ATOM     20  C   UNL     1      10.651   9.125  10.290  0.00  0.00    +0.000 A 
ATOM     21  C   UNL     1       9.458   9.664  10.843  0.00  0.00    +0.000 A 
BRANCH  21  22
ATOM     22  P   UNL     1       8.903   9.286  12.546  0.00  0.00    +0.000 P 
ATOM     23  C   UNL     1       8.987   7.396  12.244  0.00  0.00    +0.000 C 
ATOM     24  C   UNL     1      10.579   9.858  13.264  0.00  0.00    +0.000 C 
ATOM     25  O   UNL     1       8.434   8.966  13.986  0.00  0.00    +0.000 OA
ENDBRANCH  21  22
ENDBRANCH   8  12
BRANCH   1  32
ATOM     26  C   UNL     1       5.896   8.375   5.117  0.00  0.00    +0.000 A 
ATOM     27  C   UNL     1       6.291   7.034   4.968  0.00  0.00    +0.000 A 
ATOM     28  C   UNL     1       6.228   6.077   6.014  0.00  0.00    +0.000 A 
ATOM     29  C   UNL     1       5.729   6.531   7.249  0.00  0.00    +0.000 A 
ATOM     30  C   UNL     1       5.621   5.708   8.507  0.00  0.00    +0.000 C 
ATOM     31  C   UNL     1       5.308   7.869   7.387  0.00  0.00    +0.000 A 
ATOM     32  C   UNL     1       5.408   8.809   6.354  0.00  0.00    +0.000 A 
BRANCH  28  33
ATOM     33  N   UNL     1       6.647   4.780   5.773  0.00  0.00    +0.000 N 
ATOM     34  C   UNL     1       7.758   4.479   4.871  0.00  0.00    +0.000 C 
ATOM     35  C   UNL     1       7.271   3.604   3.718  0.00  0.00    +0.000 C 
ATOM     36  C   UNL     1       6.605   2.318   4.249  0.00  0.00    +0.000 C 
ATOM     37  C   UNL     1       5.459   2.713   5.193  0.00  0.00    +0.000 C 
ATOM     38  C   UNL     1       5.943   3.619   6.315  0.00  0.00    +0.000 C 
BRANCH  36  39
ATOM     39  N   UNL     1       6.048   1.478   3.168  0.00  0.00    +0.000 N 
ATOM     40  C   UNL     1       7.066   0.985   2.225  0.00  0.00    +0.000 C 
ATOM     41  C   UNL     1       7.062  -0.407   2.885  0.00  0.00    +0.000 C 
ATOM     42  F   UNL     1       6.881  -1.449   2.036  0.00  0.00    +0.000 F 
ATOM     43  C   UNL     1       5.790   0.088   3.618  0.00  0.00    +0.000 C 
ATOM     44  H   UNL     1       5.290   2.074   2.834  0.00  0.00    +0.000 HD
BRANCH  41  45
ATOM     45  C   UNL     1       8.242  -0.732   3.798  0.00  0.00    +0.000 C 
BRANCH  45  46
ATOM     46  O   UNL     1       9.467  -0.728   3.053  0.00  0.00    +0.000 OA
ATOM     47  H   UNL     1       9.423  -1.400   2.355  0.00  0.00    +0.000 HD
ENDBRANCH  45  46
ENDBRANCH  41  45
ENDBRANCH  36  39
ENDBRANCH  28  33
BRANCH  26  49
ATOM     48  C   UNL     1       6.585   8.934   2.900  0.00  0.00    +0.000 C 
ATOM     49  O   UNL     1       5.964   9.322   4.122  0.00  0.00    +0.000 OA
ENDBRANCH  26  49
ENDBRANCH   1  32
TORSDOF 8
