REMARK  Name = 
REMARK  6 active torsions:
REMARK  status: ('A' for Active; 'I' for Inactive)
REMARK    1  A    between atoms: C_1  and  N_2
REMARK    2  A    between atoms: C_5  and  C_6
REMARK    3  A    between atoms: C_9  and  C_10
REMARK    4  A    between atoms: N_16  and  C_17
REMARK    5  A    between atoms: C_17  and  C_18
REMARK    6  A    between atoms: C_17  and  C_26
REMARK                            x       y       z     vdW  Elec       q    Type
REMARK                         _______ _______ _______ _____ _____    ______ ____
ROOT
ATOM      1  C   UNL     1       6.842   4.627   7.529  0.00  0.00    +0.000 A 
ATOM      2  C   UNL     1       7.266   4.666   8.859  0.00  0.00    +0.000 A 
ATOM      3  N   UNL     1       8.338   3.995   9.357  0.00  0.00    +0.000 NA
ATOM      4  C   UNL     1       9.014   3.207   8.497  0.00  0.00    +0.000 A 
ATOM      5  N   UNL     1      10.136   2.568   9.024  0.00  0.00    +0.000 NA
ATOM      6  C   UNL     1      10.711   1.688   8.277  0.00  0.00    +0.000 A 
ATOM      7  N   UNL     1      10.330   1.352   6.999  0.00  0.00    +0.000 N 
ATOM      8  C   UNL     1       9.327   2.062   6.363  0.00  0.00    +0.000 A 
ATOM      9  O   UNL     1       8.980   1.897   5.197  0.00  0.00    +0.000 OA
ATOM     10  C   UNL     1       8.634   3.051   7.182  0.00  0.00    +0.000 A 
ATOM     11  C   UNL     1       7.562   3.775   6.686  0.00  0.00    +0.000 A 
ENDROOT
BRANCH   1  15
ATOM     12  C   UNL     1       3.424   6.670   5.897  0.00  0.00    +0.000 A 
ATOM     13  C   UNL     1       4.567   6.455   5.125  0.00  0.00    +0.000 A 
ATOM     14  C   UNL     1       5.686   5.827   5.665  0.00  0.00    +0.000 A 
ATOM     15  C   UNL     1       5.697   5.374   7.008  0.00  0.00    +0.000 A 
ATOM     16  C   UNL     1       4.555   5.619   7.781  0.00  0.00    +0.000 A 
ATOM     17  C   UNL     1       3.435   6.247   7.235  0.00  0.00    +0.000 A 
BRANCH  12  22
ATOM     18  C   UNL     1      -1.627   9.152   4.709  0.00  0.00    +0.000 C 
ATOM     19  N   UNL     1      -0.476   8.479   5.313  0.00  0.00    +0.000 N 
ATOM     20  C   UNL     1      -0.213   7.200   4.639  0.00  0.00    +0.000 C 
ATOM     21  C   UNL     1       0.969   6.465   5.278  0.00  0.00    +0.000 C 
ATOM     22  C   UNL     1       2.222   7.350   5.280  0.00  0.00    +0.000 C 
ATOM     23  C   UNL     1       1.903   8.695   5.945  0.00  0.00    +0.000 C 
ATOM     24  C   UNL     1       0.700   9.358   5.275  0.00  0.00    +0.000 C 
ATOM     25  H   UNL     1      -0.688   8.274   6.289  0.00  0.00    +0.000 HD
ENDBRANCH  12  22
ENDBRANCH   1  15
BRANCH   7  26
ATOM     26  C   UNL     1      10.841   0.144   6.340  0.00  0.00    +0.000 C 
BRANCH  26  27
ATOM     27  C   UNL     1      10.137  -1.124   6.929  0.00  0.00    +0.000 C 
ATOM     28  O   UNL     1       9.487  -1.065   7.980  0.00  0.00    +0.000 OA
ATOM     29  N   UNL     1      10.253  -2.331   6.324  0.00  0.00    +0.000 N 
ATOM     30  C   UNL     1      10.956  -2.558   5.170  0.00  0.00    +0.000 A 
ATOM     31  N   UNL     1      11.383  -1.672   4.313  0.00  0.00    +0.000 NA
ATOM     32  C   UNL     1      12.088  -2.286   3.311  0.00  0.00    +0.000 A 
ATOM     33  C   UNL     1      12.154  -3.652   3.398  0.00  0.00    +0.000 A 
ATOM     34  S   UNL     1      11.338  -4.182   4.825  0.00  0.00    +0.000 S 
ATOM     35  H   UNL     1       9.800  -3.098   6.742  0.00  0.00    +0.000 HD
ENDBRANCH  26  27
BRANCH  26  36
ATOM     36  C   UNL     1      12.371   0.116   6.313  0.00  0.00    +0.000 A 
ATOM     37  C   UNL     1      13.020   0.793   5.262  0.00  0.00    +0.000 A 
ATOM     38  C   UNL     1      14.407   0.900   5.226  0.00  0.00    +0.000 A 
ATOM     39  C   UNL     1      15.168   0.349   6.252  0.00  0.00    +0.000 A 
ATOM     40  C   UNL     1      14.545  -0.362   7.278  0.00  0.00    +0.000 A 
ATOM     41  C   UNL     1      13.155  -0.502   7.298  0.00  0.00    +0.000 A 
ENDBRANCH  26  36
ENDBRANCH   7  26
TORSDOF 5
