REMARK  Name = 
REMARK  13 active torsions:
REMARK  status: ('A' for Active; 'I' for Inactive)
REMARK    1  A    between atoms: C_1  and  C_2
REMARK    2  A    between atoms: C_2  and  O_3
REMARK    3  A    between atoms: O_3  and  C_4
REMARK    4  A    between atoms: C_10  and  N_11
REMARK    5  A    between atoms: N_11  and  C_12
REMARK    6  A    between atoms: C_15  and  O_16
REMARK    7  A    between atoms: O_16  and  C_17
REMARK    8  A    between atoms: C_17  and  C_18
REMARK    9  A    between atoms: C_30  and  N_31
REMARK   10  A    between atoms: C_32  and  C_34
REMARK   11  A    between atoms: C_35  and  C_36
REMARK   12  A    between atoms: C_36  and  N_37
REMARK   13  A    between atoms: N_40  and  C_41
REMARK                            x       y       z     vdW  Elec       q    Type
REMARK                         _______ _______ _______ _____ _____    ______ ____
ROOT
ATOM      1  C   UNL     1       2.180  -2.638   0.060  0.00  0.00    +0.000 A 
ATOM      2  C   UNL     1       2.624  -3.834  -0.525  0.00  0.00    +0.000 A 
ATOM      3  C   UNL     1       3.946  -4.265  -0.413  0.00  0.00    +0.000 A 
ATOM      4  N   UNL     1       4.313  -5.368  -1.068  0.00  0.00    +0.000 NA
ATOM      5  C   UNL     1       5.606  -5.707  -0.984  0.00  0.00    +0.000 A 
ATOM      6  N   UNL     1       6.552  -5.069  -0.296  0.00  0.00    +0.000 NA
ATOM      7  C   UNL     1       6.176  -3.977   0.391  0.00  0.00    +0.000 A 
ATOM      8  C   UNL     1       4.841  -3.512   0.352  0.00  0.00    +0.000 A 
ATOM      9  C   UNL     1       4.374  -2.342   0.996  0.00  0.00    +0.000 A 
ATOM     10  C   UNL     1       3.071  -1.878   0.828  0.00  0.00    +0.000 A 
ENDROOT
BRANCH  10  11
ATOM     11  N   UNL     1       2.621  -0.664   1.403  0.00  0.00    +0.000 N 
ATOM     12  C   UNL     1       3.409   0.300   1.997  0.00  0.00    +0.000 C 
ATOM     13  O   UNL     1       4.632   0.297   2.079  0.00  0.00    +0.000 OA
ATOM     14  H   UNL     1       1.652  -0.492   1.376  0.00  0.00    +0.000 HD
BRANCH  12  15
ATOM     15  C   UNL     1       2.616   1.414   2.581  0.00  0.00    +0.000 C 
ATOM     16  C   UNL     1       3.246   2.483   3.100  0.00  0.00    +0.000 C 
BRANCH  16  17
ATOM     17  C   UNL     1       2.554   3.580   3.850  0.00  0.00    +0.000 C 
BRANCH  17  18
ATOM     18  N   UNL     1       2.677   4.892   3.216  0.00  0.00    +0.000 N 
ATOM     19  C   UNL     1       2.039   4.948   1.887  0.00  0.00    +0.000 C 
ATOM     20  C   UNL     1       2.144   6.361   1.267  0.00  0.00    +0.000 C 
ATOM     21  N   UNL     1       1.564   7.439   2.093  0.00  0.00    +0.000 N 
ATOM     22  C   UNL     1       0.105   7.385   2.104  0.00  0.00    +0.000 C 
ATOM     23  C   UNL     1       2.126   7.345   3.456  0.00  0.00    +0.000 C 
ATOM     24  C   UNL     1       2.082   5.931   4.087  0.00  0.00    +0.000 C 
ATOM     25  H   UNL     1       3.674   5.064   3.086  0.00  0.00    +0.000 HD
ATOM     26  H   UNL     1       1.811   8.343   1.690  0.00  0.00    +0.000 HD
ENDBRANCH  17  18
ENDBRANCH  16  17
ENDBRANCH  12  15
ENDBRANCH  10  11
BRANCH   7  27
ATOM     27  N   UNL     1       7.155  -3.173   1.034  0.00  0.00    +0.000 N 
ATOM     28  H   UNL     1       6.797  -2.360   1.458  0.00  0.00    +0.000 HD
BRANCH  27  29
ATOM     29  C   UNL     1       8.549  -3.333   1.171  0.00  0.00    +0.000 A 
ATOM     30  C   UNL     1       9.206  -4.556   1.070  0.00  0.00    +0.000 A 
ATOM     31  C   UNL     1      10.593  -4.644   1.234  0.00  0.00    +0.000 A 
ATOM     32  C   UNL     1      11.356  -3.497   1.479  0.00  0.00    +0.000 A 
ATOM     33  C   UNL     1      10.698  -2.271   1.619  0.00  0.00    +0.000 A 
ATOM     34 CL   UNL     1      11.564  -0.818   1.980  0.00  0.00    +0.000 Cl
ATOM     35  C   UNL     1       9.311  -2.190   1.456  0.00  0.00    +0.000 A 
BRANCH  32  36
ATOM     36  O   UNL     1      12.724  -3.508   1.606  0.00  0.00    +0.000 OA
BRANCH  36  37
ATOM     37  C   UNL     1      13.390  -4.583   0.941  0.00  0.00    +0.000 C 
BRANCH  37  38
ATOM     38  C   UNL     1      14.833  -4.249   0.638  0.00  0.00    +0.000 A 
ATOM     39  C   UNL     1      15.244  -2.939   0.346  0.00  0.00    +0.000 A 
ATOM     40  C   UNL     1      16.557  -2.677  -0.060  0.00  0.00    +0.000 A 
ATOM     41  C   UNL     1      17.471  -3.721  -0.184  0.00  0.00    +0.000 A 
ATOM     42  C   UNL     1      17.069  -5.017   0.111  0.00  0.00    +0.000 A 
ATOM     43  F   UNL     1      17.942  -6.025  -0.018  0.00  0.00    +0.000 F 
ATOM     44  C   UNL     1      15.767  -5.290   0.516  0.00  0.00    +0.000 A 
ENDBRANCH  37  38
ENDBRANCH  36  37
ENDBRANCH  32  36
ENDBRANCH  27  29
ENDBRANCH   7  27
BRANCH   1  45
ATOM     45  O   UNL     1       0.914  -2.119  -0.085  0.00  0.00    +0.000 OA
BRANCH  45  47
ATOM     46  C   UNL     1      -1.074  -1.777  -1.370  0.00  0.00    +0.000 C 
ATOM     47  C   UNL     1       0.080  -2.720  -1.079  0.00  0.00    +0.000 C 
ENDBRANCH  45  47
ENDBRANCH   1  45
TORSDOF 11
