REMARK  Name = 
REMARK  13 active torsions:
REMARK  status: ('A' for Active; 'I' for Inactive)
REMARK    1  A    between atoms: C_1  and  O_2
REMARK    2  A    between atoms: O_2  and  C_3
REMARK    3  A    between atoms: C_9  and  N_10
REMARK    4  A    between atoms: N_10  and  C_11
REMARK    5  A    between atoms: C_14  and  O_15
REMARK    6  A    between atoms: O_15  and  C_16
REMARK    7  A    between atoms: C_16  and  C_17
REMARK    8  A    between atoms: C_29  and  N_30
REMARK    9  A    between atoms: C_31  and  C_33
REMARK   10  A    between atoms: C_35  and  C_36
REMARK   11  A    between atoms: C_36  and  N_37
REMARK   12  A    between atoms: N_37  and  C_38
REMARK   13  A    between atoms: N_37  and  C_39
REMARK                            x       y       z     vdW  Elec       q    Type
REMARK                         _______ _______ _______ _____ _____    ______ ____
ROOT
ATOM      1  C   UNL     1       0.812   1.507   1.879  0.00  0.00    +0.000 A 
ATOM      2  C   UNL     1      -0.240   1.777   2.778  0.00  0.00    +0.000 A 
ATOM      3  C   UNL     1      -0.028   2.010   4.132  0.00  0.00    +0.000 A 
ATOM      4  N   UNL     1      -1.063   2.286   4.931  0.00  0.00    +0.000 NA
ATOM      5  C   UNL     1      -0.782   2.500   6.223  0.00  0.00    +0.000 A 
ATOM      6  N   UNL     1       0.425   2.428   6.790  0.00  0.00    +0.000 NA
ATOM      7  C   UNL     1       1.460   2.135   5.983  0.00  0.00    +0.000 A 
ATOM      8  C   UNL     1       1.283   1.959   4.605  0.00  0.00    +0.000 A 
ATOM      9  C   UNL     1       2.333   1.746   3.695  0.00  0.00    +0.000 A 
ATOM     10  C   UNL     1       2.126   1.436   2.355  0.00  0.00    +0.000 A 
ENDROOT
BRANCH  10  11
ATOM     11  N   UNL     1       3.219   1.070   1.518  0.00  0.00    +0.000 N 
ATOM     12  C   UNL     1       4.469   0.683   1.997  0.00  0.00    +0.000 C 
ATOM     13  O   UNL     1       4.773   0.591   3.184  0.00  0.00    +0.000 OA
ATOM     14  H   UNL     1       3.084   1.093   0.544  0.00  0.00    +0.000 HD
BRANCH  12  15
ATOM     15  C   UNL     1       5.465   0.313   0.949  0.00  0.00    +0.000 C 
ATOM     16  F   UNL     1       5.098   0.599  -0.319  0.00  0.00    +0.000 F 
ATOM     17  C   UNL     1       6.650  -0.277   1.181  0.00  0.00    +0.000 C 
BRANCH  17  18
ATOM     18  C   UNL     1       7.247  -0.646   2.520  0.00  0.00    +0.000 C 
BRANCH  18  19
ATOM     19  N   UNL     1       8.725  -0.681   2.506  0.00  0.00    +0.000 N 
ATOM     20  C   UNL     1       9.289   0.650   2.254  0.00  0.00    +0.000 C 
ATOM     21  C   UNL     1       9.215  -1.164   3.807  0.00  0.00    +0.000 C 
ATOM     22  H   UNL     1       9.018  -1.307   1.756  0.00  0.00    +0.000 HD
ENDBRANCH  18  19
ENDBRANCH  17  18
ENDBRANCH  12  15
ENDBRANCH  10  11
BRANCH   1  24
ATOM     23  C   UNL     1      -0.506   1.998  -0.006  0.00  0.00    +0.000 C 
ATOM     24  O   UNL     1       0.609   1.284   0.539  0.00  0.00    +0.000 OA
ENDBRANCH   1  24
BRANCH   7  25
ATOM     25  N   UNL     1       2.726   1.872   6.570  0.00  0.00    +0.000 N 
ATOM     26  H   UNL     1       3.281   1.188   6.129  0.00  0.00    +0.000 HD
BRANCH  25  27
ATOM     27  C   UNL     1       3.272   2.483   7.713  0.00  0.00    +0.000 A 
ATOM     28  C   UNL     1       2.829   3.726   8.155  0.00  0.00    +0.000 A 
ATOM     29  C   UNL     1       3.419   4.337   9.250  0.00  0.00    +0.000 A 
ATOM     30  C   UNL     1       4.447   3.705   9.952  0.00  0.00    +0.000 A 
ATOM     31  C   UNL     1       4.941   2.481   9.482  0.00  0.00    +0.000 A 
ATOM     32 CL   UNL     1       6.276   1.691  10.233  0.00  0.00    +0.000 Cl
ATOM     33  C   UNL     1       4.346   1.869   8.370  0.00  0.00    +0.000 A 
BRANCH  30  34
ATOM     34  O   UNL     1       5.000   4.241  11.092  0.00  0.00    +0.000 OA
BRANCH  34  35
ATOM     35  C   UNL     1       4.127   5.138  11.786  0.00  0.00    +0.000 C 
BRANCH  35  36
ATOM     36  C   UNL     1       4.483   5.275  13.243  0.00  0.00    +0.000 A 
ATOM     37  C   UNL     1       5.079   4.225  13.955  0.00  0.00    +0.000 A 
ATOM     38  C   UNL     1       5.260   4.321  15.336  0.00  0.00    +0.000 A 
ATOM     39  C   UNL     1       4.844   5.464  16.017  0.00  0.00    +0.000 A 
ATOM     40  C   UNL     1       4.265   6.510  15.310  0.00  0.00    +0.000 A 
ATOM     41  F   UNL     1       3.858   7.605  15.963  0.00  0.00    +0.000 F 
ATOM     42  C   UNL     1       4.078   6.426  13.936  0.00  0.00    +0.000 A 
ENDBRANCH  35  36
ENDBRANCH  34  35
ENDBRANCH  30  34
ENDBRANCH  25  27
ENDBRANCH   7  25
TORSDOF 10
