REMARK  Name = 
REMARK  15 active torsions:
REMARK  status: ('A' for Active; 'I' for Inactive)
REMARK    1  A    between atoms: C_1  and  C_2
REMARK    2  A    between atoms: C_3  and  C_4
REMARK    3  A    between atoms: N_6  and  C_7
REMARK    4  A    between atoms: C_9  and  N_10
REMARK    5  A    between atoms: C_15  and  C_16
REMARK    6  A    between atoms: N_18  and  S_19
REMARK    7  A    between atoms: S_19  and  C_22
REMARK    8  A    between atoms: C_22  and  C_23
REMARK    9  A    between atoms: N_35  and  C_36
REMARK   10  A    between atoms: C_36  and  C_37
REMARK   11  A    between atoms: C_37  and  N_38
REMARK   12  A    between atoms: N_38  and  C_39
REMARK   13  A    between atoms: N_38  and  C_41
REMARK   14  A    between atoms: C_39  and  C_40
REMARK   15  A    between atoms: C_41  and  C_42
REMARK                            x       y       z     vdW  Elec       q    Type
REMARK                         _______ _______ _______ _____ _____    ______ ____
ROOT
ATOM      1  C   UNL     1       0.464  -3.542  -1.898  0.00  0.00    +0.000 A 
ATOM      2  C   UNL     1       1.663  -2.830  -1.621  0.00  0.00    +0.000 A 
ATOM      3  C   UNL     1       2.478  -2.250  -2.605  0.00  0.00    +0.000 A 
ATOM      4  C   UNL     1       2.067  -2.381  -3.930  0.00  0.00    +0.000 A 
ATOM      5  C   UNL     1       0.960  -3.170  -4.266  0.00  0.00    +0.000 A 
ATOM      6  C   UNL     1       0.445  -3.611  -5.494  0.00  0.00    +0.000 A 
ATOM      7  N   UNL     1      -0.634  -4.366  -5.336  0.00  0.00    +0.000 NA
ATOM      8  N   UNL     1      -0.884  -4.296  -4.006  0.00  0.00    +0.000 N 
ATOM      9  C   UNL     1       0.140  -3.714  -3.272  0.00  0.00    +0.000 A 
ENDROOT
BRANCH   3  10
ATOM     10  N   UNL     1       3.648  -1.549  -2.243  0.00  0.00    +0.000 N 
ATOM     11  C   UNL     1       4.748  -1.195  -3.029  0.00  0.00    +0.000 A 
ATOM     12  N   UNL     1       4.636  -1.102  -4.366  0.00  0.00    +0.000 NA
ATOM     13  C   UNL     1       5.738  -0.880  -5.090  0.00  0.00    +0.000 A 
ATOM     14  C   UNL     1       6.973  -0.732  -4.532  0.00  0.00    +0.000 A 
ATOM     15  C   UNL     1       7.012  -0.830  -3.156  0.00  0.00    +0.000 A 
ATOM     16  N   UNL     1       5.916  -1.034  -2.393  0.00  0.00    +0.000 NA
ATOM     17  H   UNL     1       3.696  -1.268  -1.301  0.00  0.00    +0.000 HD
BRANCH  15  18
ATOM     18  C   UNL     1       8.289  -0.826  -2.449  0.00  0.00    +0.000 A 
ATOM     19  C   UNL     1       9.445  -1.357  -2.992  0.00  0.00    +0.000 A 
ATOM     20  N   UNL     1      10.432  -1.251  -2.051  0.00  0.00    +0.000 N 
ATOM     21  C   UNL     1       9.965  -0.675  -0.891  0.00  0.00    +0.000 A 
ATOM     22  C   UNL     1      10.586  -0.370   0.335  0.00  0.00    +0.000 A 
ATOM     23  C   UNL     1       9.820   0.232   1.330  0.00  0.00    +0.000 A 
ATOM     24  C   UNL     1       8.479   0.535   1.122  0.00  0.00    +0.000 A 
ATOM     25  C   UNL     1       7.867   0.230  -0.096  0.00  0.00    +0.000 A 
ATOM     26  C   UNL     1       8.610  -0.389  -1.124  0.00  0.00    +0.000 A 
BRANCH  20  27
ATOM     27  S   UNL     1      11.998  -1.896  -2.264  0.00  0.00    +0.000 S 
ATOM     28  O   UNL     1      12.023  -2.385  -3.632  0.00  0.00    +0.000 OA
ATOM     29  O   UNL     1      12.894  -0.835  -1.834  0.00  0.00    +0.000 OA
BRANCH  27  30
ATOM     30  C   UNL     1      12.167  -3.285  -1.167  0.00  0.00    +0.000 C 
ATOM     31  C   UNL     1      13.551  -3.900  -1.272  0.00  0.00    +0.000 C 
ENDBRANCH  27  30
ENDBRANCH  20  27
ENDBRANCH  15  18
ENDBRANCH   3  10
BRANCH   1  34
ATOM     32  C   UNL     1      -0.167  -3.937   0.501  0.00  0.00    +0.000 C 
ATOM     33  O   UNL     1       0.751  -3.372   1.076  0.00  0.00    +0.000 OA
ATOM     34  N   UNL     1      -0.355  -4.068  -0.865  0.00  0.00    +0.000 N 
ATOM     35  H   UNL     1      -1.144  -4.582  -1.151  0.00  0.00    +0.000 HD
BRANCH  32  38
ATOM     36  C   UNL     1      -2.158  -5.337   3.516  0.00  0.00    +0.000 C 
ATOM     37  C   UNL     1      -1.190  -4.625   2.631  0.00  0.00    +0.000 C 
ATOM     38  C   UNL     1      -1.250  -4.611   1.288  0.00  0.00    +0.000 C 
ENDBRANCH  32  38
ENDBRANCH   1  34
BRANCH   8  39
ATOM     39  C   UNL     1      -2.127  -4.907  -3.574  0.00  0.00    +0.000 C 
BRANCH  39  40
ATOM     40  C   UNL     1      -3.195  -3.933  -3.039  0.00  0.00    +0.000 C 
BRANCH  40  41
ATOM     41  N   UNL     1      -3.630  -2.832  -3.917  0.00  0.00    +0.000 N 
ATOM     42  H   UNL     1      -2.757  -2.364  -4.158  0.00  0.00    +0.000 HD
BRANCH  41  43
ATOM     43  C   UNL     1      -4.226  -3.262  -5.195  0.00  0.00    +0.000 C 
ATOM     44  C   UNL     1      -5.473  -4.139  -5.103  0.00  0.00    +0.000 C 
ENDBRANCH  41  43
BRANCH  41  45
ATOM     45  C   UNL     1      -4.491  -1.850  -3.237  0.00  0.00    +0.000 C 
ATOM     46  C   UNL     1      -3.796  -1.101  -2.103  0.00  0.00    +0.000 C 
ENDBRANCH  41  45
ENDBRANCH  40  41
ENDBRANCH  39  40
ENDBRANCH   8  39
TORSDOF 11
