MODEL 1
REMARK VINA RESULT:    -9.293      0.000      0.000
REMARK INTER + INTRA:         -13.649
REMARK INTER:                 -13.095
REMARK INTRA:                  -0.553
REMARK UNBOUND:                -0.553
REMARK  Name = 
REMARK  10 active torsions:
REMARK  status: ('A' for Active; 'I' for Inactive)
REMARK    1  A    between atoms: C_2  and  C_3
REMARK    2  A    between atoms: N_5  and  C_6
REMARK    3  A    between atoms: C_8  and  N_9
REMARK    4  A    between atoms: C_14  and  C_15
REMARK    5  A    between atoms: C_28  and  O_29
REMARK    6  A    between atoms: O_29  and  C_30
REMARK    7  A    between atoms: C_32  and  N_33
REMARK    8  A    between atoms: C_35  and  N_36
REMARK    9  A    between atoms: N_36  and  C_37
REMARK   10  A    between atoms: N_36  and  C_38
REMARK                            x       y       z     vdW  Elec       q    Type
REMARK                         _______ _______ _______ _____ _____    ______ ____
ROOT
ATOM      1  C   UNL     1      17.971   0.731  50.138  0.00  0.00    +0.000 A 
ATOM      2  C   UNL     1      18.720   0.267  51.240  0.00  0.00    +0.000 A 
ATOM      3  C   UNL     1      19.429   1.136  52.089  0.00  0.00    +0.000 A 
ATOM      4  C   UNL     1      19.397   2.515  51.754  0.00  0.00    +0.000 A 
ATOM      5  C   UNL     1      18.695   2.966  50.605  0.00  0.00    +0.000 A 
ATOM      6  C   UNL     1      17.956   2.101  49.800  0.00  0.00    +0.000 A 
ENDROOT
BRANCH   3   7
ATOM      7  N   UNL     1      20.050   0.655  53.275  0.00  0.00    +0.000 N 
ATOM      8  C   UNL     1      21.289   0.039  53.575  0.00  0.00    +0.000 A 
ATOM      9  N   UNL     1      21.121  -0.919  54.511  0.00  0.00    +0.000 NA
ATOM     10  C   UNL     1      22.211  -1.548  54.976  0.00  0.00    +0.000 A 
ATOM     11  C   UNL     1      23.478  -1.269  54.544  0.00  0.00    +0.000 A 
ATOM     12  C   UNL     1      23.598  -0.281  53.582  0.00  0.00    +0.000 A 
ATOM     13  N   UNL     1      22.508   0.401  53.099  0.00  0.00    +0.000 NA
ATOM     14  H   UNL     1      19.486   0.781  54.073  0.00  0.00    +0.000 HD
BRANCH  12  15
ATOM     15  C   UNL     1      24.975   0.164  53.264  0.00  0.00    +0.000 A 
ATOM     16  C   UNL     1      25.374   1.499  53.104  0.00  0.00    +0.000 A 
ATOM     17  N   UNL     1      26.729   1.517  53.234  0.00  0.00    +0.000 N 
ATOM     18  C   UNL     1      27.155   0.269  53.601  0.00  0.00    +0.000 A 
ATOM     19  C   UNL     1      28.462   0.013  53.980  0.00  0.00    +0.000 A 
ATOM     20  C   UNL     1      28.984  -1.106  53.360  0.00  0.00    +0.000 A 
ATOM     21  C   UNL     1      28.114  -2.025  52.741  0.00  0.00    +0.000 A 
ATOM     22  C   UNL     1      26.698  -1.869  52.770  0.00  0.00    +0.000 A 
ATOM     23  C   UNL     1      26.206  -0.601  53.133  0.00  0.00    +0.000 A 
ATOM     24  C   UNL     1      29.118   1.159  54.670  0.00  0.00    +0.000 C 
ATOM     25  C   UNL     1      29.040   2.396  53.754  0.00  0.00    +0.000 C 
ATOM     26  C   UNL     1      27.803   2.407  52.797  0.00  0.00    +0.000 C 
ENDBRANCH  12  15
ENDBRANCH   3   7
BRANCH   1  29
ATOM     27  C   UNL     1      16.013  -0.794  49.793  0.00  0.00    +0.000 C 
ATOM     28  O   UNL     1      15.518  -0.768  50.911  0.00  0.00    +0.000 OA
ATOM     29  N   UNL     1      17.127  -0.095  49.364  0.00  0.00    +0.000 N 
ATOM     30  H   UNL     1      17.358  -0.183  48.411  0.00  0.00    +0.000 HD
BRANCH  27  32
ATOM     31  C   UNL     1      14.729  -2.691  48.973  0.00  0.00    +0.000 C 
ATOM     32  C   UNL     1      15.345  -1.538  48.702  0.00  0.00    +0.000 C 
ENDBRANCH  27  32
ENDBRANCH   1  29
BRANCH   6  33
ATOM     33  N   UNL     1      17.104   2.570  48.733  0.00  0.00    +0.000 N 
ATOM     34  C   UNL     1      16.041   3.543  48.895  0.00  0.00    +0.000 C 
ATOM     35  C   UNL     1      16.714   4.452  47.855  0.00  0.00    +0.000 C 
ATOM     36  C   UNL     1      17.586   3.224  47.534  0.00  0.00    +0.000 C 
BRANCH  35  37
ATOM     37  N   UNL     1      15.767   4.786  46.753  0.00  0.00    +0.000 N 
ATOM     38  C   UNL     1      15.111   6.071  47.045  0.00  0.00    +0.000 C 
ATOM     39  C   UNL     1      16.503   4.928  45.490  0.00  0.00    +0.000 C 
ATOM     40  H   UNL     1      15.077   4.039  46.676  0.00  0.00    +0.000 HD
ENDBRANCH  35  37
ENDBRANCH   6  33
BRANCH   4  41
ATOM     41  O   UNL     1      19.923   3.603  52.398  0.00  0.00    +0.000 OA
ATOM     42  C   UNL     1      21.304   3.891  52.388  0.00  0.00    +0.000 C 
ENDBRANCH   4  41
TORSDOF 7
ENDMDL
MODEL 2
REMARK VINA RESULT:    -9.199      2.997     10.356
REMARK INTER + INTRA:         -13.517
REMARK INTER:                 -12.945
REMARK INTRA:                  -0.572
REMARK UNBOUND:                -0.553
REMARK  Name = 
REMARK  10 active torsions:
REMARK  status: ('A' for Active; 'I' for Inactive)
REMARK    1  A    between atoms: C_2  and  C_3
REMARK    2  A    between atoms: N_5  and  C_6
REMARK    3  A    between atoms: C_8  and  N_9
REMARK    4  A    between atoms: C_14  and  C_15
REMARK    5  A    between atoms: C_28  and  O_29
REMARK    6  A    between atoms: O_29  and  C_30
REMARK    7  A    between atoms: C_32  and  N_33
REMARK    8  A    between atoms: C_35  and  N_36
REMARK    9  A    between atoms: N_36  and  C_37
REMARK   10  A    between atoms: N_36  and  C_38
REMARK                            x       y       z     vdW  Elec       q    Type
REMARK                         _______ _______ _______ _____ _____    ______ ____
ROOT
ATOM      1  C   UNL     1      23.573   2.325  50.962  0.00  0.00    +0.000 A 
ATOM      2  C   UNL     1      22.224   2.743  50.941  0.00  0.00    +0.000 A 
ATOM      3  C   UNL     1      21.277   2.280  51.871  0.00  0.00    +0.000 A 
ATOM      4  C   UNL     1      21.732   1.322  52.815  0.00  0.00    +0.000 A 
ATOM      5  C   UNL     1      23.074   0.857  52.788  0.00  0.00    +0.000 A 
ATOM      6  C   UNL     1      24.016   1.361  51.892  0.00  0.00    +0.000 A 
ENDROOT
BRANCH   3   7
ATOM      7  N   UNL     1      19.967   2.830  51.917  0.00  0.00    +0.000 N 
ATOM      8  C   UNL     1      18.667   2.341  51.639  0.00  0.00    +0.000 A 
ATOM      9  N   UNL     1      17.928   3.295  51.034  0.00  0.00    +0.000 NA
ATOM     10  C   UNL     1      16.639   3.027  50.775  0.00  0.00    +0.000 A 
ATOM     11  C   UNL     1      16.043   1.838  51.090  0.00  0.00    +0.000 A 
ATOM     12  C   UNL     1      16.843   0.891  51.706  0.00  0.00    +0.000 A 
ATOM     13  N   UNL     1      18.160   1.137  52.008  0.00  0.00    +0.000 NA
ATOM     14  H   UNL     1      19.963   3.769  52.211  0.00  0.00    +0.000 HD
BRANCH  12  15
ATOM     15  C   UNL     1      16.154  -0.312  52.231  0.00  0.00    +0.000 A 
ATOM     16  C   UNL     1      14.769  -0.525  52.204  0.00  0.00    +0.000 A 
ATOM     17  N   UNL     1      14.578  -1.860  52.384  0.00  0.00    +0.000 N 
ATOM     18  C   UNL     1      15.796  -2.485  52.385  0.00  0.00    +0.000 A 
ATOM     19  C   UNL     1      15.922  -3.864  52.373  0.00  0.00    +0.000 A 
ATOM     20  C   UNL     1      16.829  -4.321  53.310  0.00  0.00    +0.000 A 
ATOM     21  C   UNL     1      17.742  -3.418  53.888  0.00  0.00    +0.000 A 
ATOM     22  C   UNL     1      17.800  -2.046  53.507  0.00  0.00    +0.000 A 
ATOM     23  C   UNL     1      16.699  -1.539  52.791  0.00  0.00    +0.000 A 
ATOM     24  C   UNL     1      14.830  -4.556  51.632  0.00  0.00    +0.000 C 
ATOM     25  C   UNL     1      13.477  -4.130  52.235  0.00  0.00    +0.000 C 
ATOM     26  C   UNL     1      13.479  -2.697  52.863  0.00  0.00    +0.000 C 
ENDBRANCH  12  15
ENDBRANCH   3   7
BRANCH   1  29
ATOM     27  C   UNL     1      25.140   4.147  50.252  0.00  0.00    +0.000 C 
ATOM     28  O   UNL     1      24.913   4.979  51.120  0.00  0.00    +0.000 OA
ATOM     29  N   UNL     1      24.577   2.888  50.145  0.00  0.00    +0.000 N 
ATOM     30  H   UNL     1      24.916   2.319  49.416  0.00  0.00    +0.000 HD
BRANCH  27  32
ATOM     31  C   UNL     1      26.568   5.649  48.977  0.00  0.00    +0.000 C 
ATOM     32  C   UNL     1      26.192   4.395  49.242  0.00  0.00    +0.000 C 
ENDBRANCH  27  32
ENDBRANCH   1  29
BRANCH   6  33
ATOM     33  N   UNL     1      25.417   1.023  51.966  0.00  0.00    +0.000 N 
ATOM     34  C   UNL     1      26.391   1.719  52.785  0.00  0.00    +0.000 C 
ATOM     35  C   UNL     1      26.722   0.405  53.510  0.00  0.00    +0.000 C 
ATOM     36  C   UNL     1      25.922  -0.270  52.380  0.00  0.00    +0.000 C 
BRANCH  35  37
ATOM     37  N   UNL     1      28.181   0.112  53.432  0.00  0.00    +0.000 N 
ATOM     38  C   UNL     1      28.843   0.595  54.655  0.00  0.00    +0.000 C 
ATOM     39  C   UNL     1      28.394  -1.339  53.342  0.00  0.00    +0.000 C 
ATOM     40  H   UNL     1      28.566   0.576  52.609  0.00  0.00    +0.000 HD
ENDBRANCH  35  37
ENDBRANCH   6  33
BRANCH   4  41
ATOM     41  O   UNL     1      21.088   0.729  53.868  0.00  0.00    +0.000 OA
ATOM     42  C   UNL     1      21.495  -0.513  54.400  0.00  0.00    +0.000 C 
ENDBRANCH   4  41
TORSDOF 7
ENDMDL
MODEL 3
REMARK VINA RESULT:    -8.966      1.906      3.990
REMARK INTER + INTRA:         -13.189
REMARK INTER:                 -12.575
REMARK INTRA:                  -0.614
REMARK UNBOUND:                -0.553
REMARK  Name = 
REMARK  10 active torsions:
REMARK  status: ('A' for Active; 'I' for Inactive)
REMARK    1  A    between atoms: C_2  and  C_3
REMARK    2  A    between atoms: N_5  and  C_6
REMARK    3  A    between atoms: C_8  and  N_9
REMARK    4  A    between atoms: C_14  and  C_15
REMARK    5  A    between atoms: C_28  and  O_29
REMARK    6  A    between atoms: O_29  and  C_30
REMARK    7  A    between atoms: C_32  and  N_33
REMARK    8  A    between atoms: C_35  and  N_36
REMARK    9  A    between atoms: N_36  and  C_37
REMARK   10  A    between atoms: N_36  and  C_38
REMARK                            x       y       z     vdW  Elec       q    Type
REMARK                         _______ _______ _______ _____ _____    ______ ____
ROOT
ATOM      1  C   UNL     1      19.738   3.971  50.403  0.00  0.00    +0.000 A 
ATOM      2  C   UNL     1      20.098   3.361  51.624  0.00  0.00    +0.000 A 
ATOM      3  C   UNL     1      19.753   2.033  51.932  0.00  0.00    +0.000 A 
ATOM      4  C   UNL     1      18.974   1.340  50.968  0.00  0.00    +0.000 A 
ATOM      5  C   UNL     1      18.561   1.984  49.771  0.00  0.00    +0.000 A 
ATOM      6  C   UNL     1      18.950   3.284  49.456  0.00  0.00    +0.000 A 
ENDROOT
BRANCH   3   7
ATOM      7  N   UNL     1      20.256   1.398  53.101  0.00  0.00    +0.000 N 
ATOM      8  C   UNL     1      21.405   0.630  53.406  0.00  0.00    +0.000 A 
ATOM      9  N   UNL     1      21.087  -0.373  54.253  0.00  0.00    +0.000 NA
ATOM     10  C   UNL     1      22.079  -1.150  54.714  0.00  0.00    +0.000 A 
ATOM     11  C   UNL     1      23.389  -0.978  54.365  0.00  0.00    +0.000 A 
ATOM     12  C   UNL     1      23.664   0.061  53.493  0.00  0.00    +0.000 A 
ATOM     13  N   UNL     1      22.679   0.892  53.019  0.00  0.00    +0.000 NA
ATOM     14  H   UNL     1      19.666   1.523  53.880  0.00  0.00    +0.000 HD
BRANCH  12  15
ATOM     15  C   UNL     1      25.096   0.378  53.277  0.00  0.00    +0.000 A 
ATOM     16  C   UNL     1      25.641   1.669  53.248  0.00  0.00    +0.000 A 
ATOM     17  N   UNL     1      26.981   1.529  53.440  0.00  0.00    +0.000 N 
ATOM     18  C   UNL     1      27.253   0.216  53.718  0.00  0.00    +0.000 A 
ATOM     19  C   UNL     1      28.504  -0.210  54.133  0.00  0.00    +0.000 A 
ATOM     20  C   UNL     1      28.937  -1.327  53.444  0.00  0.00    +0.000 A 
ATOM     21  C   UNL     1      28.010  -2.093  52.711  0.00  0.00    +0.000 A 
ATOM     22  C   UNL     1      26.619  -1.785  52.689  0.00  0.00    +0.000 A 
ATOM     23  C   UNL     1      26.245  -0.504  53.136  0.00  0.00    +0.000 A 
ATOM     24  C   UNL     1      29.239   0.798  54.946  0.00  0.00    +0.000 C 
ATOM     25  C   UNL     1      29.341   2.106  54.136  0.00  0.00    +0.000 C 
ATOM     26  C   UNL     1      28.164   2.328  53.129  0.00  0.00    +0.000 C 
ENDBRANCH  12  15
ENDBRANCH   3   7
BRANCH   1  29
ATOM     27  C   UNL     1      21.476   5.580  49.582  0.00  0.00    +0.000 C 
ATOM     28  O   UNL     1      22.419   4.818  49.421  0.00  0.00    +0.000 OA
ATOM     29  N   UNL     1      20.201   5.243  50.000  0.00  0.00    +0.000 N 
ATOM     30  H   UNL     1      19.540   5.973  50.020  0.00  0.00    +0.000 HD
BRANCH  27  32
ATOM     31  C   UNL     1      21.879   7.912  50.144  0.00  0.00    +0.000 C 
ATOM     32  C   UNL     1      21.600   7.005  49.205  0.00  0.00    +0.000 C 
ENDBRANCH  27  32
ENDBRANCH   1  29
BRANCH   6  33
ATOM     33  N   UNL     1      18.679   3.886  48.171  0.00  0.00    +0.000 N 
ATOM     34  C   UNL     1      19.447   3.639  46.967  0.00  0.00    +0.000 C 
ATOM     35  C   UNL     1      18.176   3.149  46.256  0.00  0.00    +0.000 C 
ATOM     36  C   UNL     1      17.426   3.753  47.458  0.00  0.00    +0.000 C 
BRANCH  35  37
ATOM     37  N   UNL     1      17.947   3.913  44.997  0.00  0.00    +0.000 N 
ATOM     38  C   UNL     1      18.939   3.502  43.989  0.00  0.00    +0.000 C 
ATOM     39  C   UNL     1      16.610   3.613  44.468  0.00  0.00    +0.000 C 
ATOM     40  H   UNL     1      18.031   4.909  45.198  0.00  0.00    +0.000 HD
ENDBRANCH  35  37
ENDBRANCH   6  33
BRANCH   4  41
ATOM     41  O   UNL     1      18.533   0.044  50.939  0.00  0.00    +0.000 OA
ATOM     42  C   UNL     1      17.691  -0.490  51.938  0.00  0.00    +0.000 C 
ENDBRANCH   4  41
TORSDOF 7
ENDMDL
MODEL 4
REMARK VINA RESULT:    -8.702      2.605     10.251
REMARK INTER + INTRA:         -12.817
REMARK INTER:                 -12.227
REMARK INTRA:                  -0.590
REMARK UNBOUND:                -0.553
REMARK  Name = 
REMARK  10 active torsions:
REMARK  status: ('A' for Active; 'I' for Inactive)
REMARK    1  A    between atoms: C_2  and  C_3
REMARK    2  A    between atoms: N_5  and  C_6
REMARK    3  A    between atoms: C_8  and  N_9
REMARK    4  A    between atoms: C_14  and  C_15
REMARK    5  A    between atoms: C_28  and  O_29
REMARK    6  A    between atoms: O_29  and  C_30
REMARK    7  A    between atoms: C_32  and  N_33
REMARK    8  A    between atoms: C_35  and  N_36
REMARK    9  A    between atoms: N_36  and  C_37
REMARK   10  A    between atoms: N_36  and  C_38
REMARK                            x       y       z     vdW  Elec       q    Type
REMARK                         _______ _______ _______ _____ _____    ______ ____
ROOT
ATOM      1  C   UNL     1      24.129   1.706  52.481  0.00  0.00    +0.000 A 
ATOM      2  C   UNL     1      23.322   2.493  51.631  0.00  0.00    +0.000 A 
ATOM      3  C   UNL     1      23.847   3.197  50.532  0.00  0.00    +0.000 A 
ATOM      4  C   UNL     1      25.251   3.119  50.343  0.00  0.00    +0.000 A 
ATOM      5  C   UNL     1      26.065   2.379  51.241  0.00  0.00    +0.000 A 
ATOM      6  C   UNL     1      25.527   1.646  52.297  0.00  0.00    +0.000 A 
ENDROOT
BRANCH   3   7
ATOM      7  N   UNL     1      22.990   3.858  49.610  0.00  0.00    +0.000 N 
ATOM      8  C   UNL     1      21.804   3.508  48.919  0.00  0.00    +0.000 A 
ATOM      9  N   UNL     1      21.829   4.006  47.665  0.00  0.00    +0.000 NA
ATOM     10  C   UNL     1      20.741   3.840  46.897  0.00  0.00    +0.000 A 
ATOM     11  C   UNL     1      19.617   3.189  47.321  0.00  0.00    +0.000 A 
ATOM     12  C   UNL     1      19.642   2.694  48.613  0.00  0.00    +0.000 A 
ATOM     13  N   UNL     1      20.727   2.865  49.437  0.00  0.00    +0.000 NA
ATOM     14  H   UNL     1      23.293   4.772  49.403  0.00  0.00    +0.000 HD
BRANCH  12  15
ATOM     15  C   UNL     1      18.359   2.173  49.143  0.00  0.00    +0.000 A 
ATOM     16  C   UNL     1      17.089   2.498  48.646  0.00  0.00    +0.000 A 
ATOM     17  N   UNL     1      16.237   1.538  49.100  0.00  0.00    +0.000 N 
ATOM     18  C   UNL     1      16.963   0.570  49.741  0.00  0.00    +0.000 A 
ATOM     19  C   UNL     1      16.400  -0.624  50.160  0.00  0.00    +0.000 A 
ATOM     20  C   UNL     1      16.742  -0.944  51.459  0.00  0.00    +0.000 A 
ATOM     21  C   UNL     1      17.830  -0.291  52.070  0.00  0.00    +0.000 A 
ATOM     22  C   UNL     1      18.630   0.664  51.378  0.00  0.00    +0.000 A 
ATOM     23  C   UNL     1      18.100   1.190  50.185  0.00  0.00    +0.000 A 
ATOM     24  C   UNL     1      15.299  -1.105  49.278  0.00  0.00    +0.000 C 
ATOM     25  C   UNL     1      14.232   0.003  49.172  0.00  0.00    +0.000 C 
ATOM     26  C   UNL     1      14.797   1.453  49.331  0.00  0.00    +0.000 C 
ENDBRANCH  12  15
ENDBRANCH   3   7
BRANCH   1  29
ATOM     27  C   UNL     1      22.672  -0.137  53.351  0.00  0.00    +0.000 C 
ATOM     28  O   UNL     1      22.167  -0.525  52.308  0.00  0.00    +0.000 OA
ATOM     29  N   UNL     1      23.612   0.868  53.492  0.00  0.00    +0.000 N 
ATOM     30  H   UNL     1      23.961   1.016  54.401  0.00  0.00    +0.000 HD
BRANCH  27  32
ATOM     31  C   UNL     1      21.375  -1.709  54.678  0.00  0.00    +0.000 C 
ATOM     32  C   UNL     1      22.384  -0.837  54.622  0.00  0.00    +0.000 C 
ENDBRANCH  27  32
ENDBRANCH   1  29
BRANCH   6  33
ATOM     33  N   UNL     1      26.322   0.757  53.111  0.00  0.00    +0.000 N 
ATOM     34  C   UNL     1      26.507  -0.657  52.848  0.00  0.00    +0.000 C 
ATOM     35  C   UNL     1      28.027  -0.446  52.775  0.00  0.00    +0.000 C 
ATOM     36  C   UNL     1      27.734   0.942  53.376  0.00  0.00    +0.000 C 
BRANCH  35  37
ATOM     37  N   UNL     1      28.732  -1.346  53.730  0.00  0.00    +0.000 N 
ATOM     38  C   UNL     1      28.762  -2.712  53.182  0.00  0.00    +0.000 C 
ATOM     39  C   UNL     1      30.119  -0.897  53.908  0.00  0.00    +0.000 C 
ATOM     40  H   UNL     1      28.239  -1.328  54.623  0.00  0.00    +0.000 HD
ENDBRANCH  35  37
ENDBRANCH   6  33
BRANCH   4  41
ATOM     41  O   UNL     1      26.049   3.630  49.354  0.00  0.00    +0.000 OA
ATOM     42  C   UNL     1      26.416   4.992  49.307  0.00  0.00    +0.000 C 
ENDBRANCH   4  41
TORSDOF 7
ENDMDL
MODEL 5
REMARK VINA RESULT:    -8.561      3.077     10.525
REMARK INTER + INTRA:         -12.618
REMARK INTER:                 -12.381
REMARK INTRA:                  -0.237
REMARK UNBOUND:                -0.553
REMARK  Name = 
REMARK  10 active torsions:
REMARK  status: ('A' for Active; 'I' for Inactive)
REMARK    1  A    between atoms: C_2  and  C_3
REMARK    2  A    between atoms: N_5  and  C_6
REMARK    3  A    between atoms: C_8  and  N_9
REMARK    4  A    between atoms: C_14  and  C_15
REMARK    5  A    between atoms: C_28  and  O_29
REMARK    6  A    between atoms: O_29  and  C_30
REMARK    7  A    between atoms: C_32  and  N_33
REMARK    8  A    between atoms: C_35  and  N_36
REMARK    9  A    between atoms: N_36  and  C_37
REMARK   10  A    between atoms: N_36  and  C_38
REMARK                            x       y       z     vdW  Elec       q    Type
REMARK                         _______ _______ _______ _____ _____    ______ ____
ROOT
ATOM      1  C   UNL     1      23.060   1.642  52.887  0.00  0.00    +0.000 A 
ATOM      2  C   UNL     1      22.088   2.374  52.170  0.00  0.00    +0.000 A 
ATOM      3  C   UNL     1      22.431   3.302  51.171  0.00  0.00    +0.000 A 
ATOM      4  C   UNL     1      23.817   3.510  50.947  0.00  0.00    +0.000 A 
ATOM      5  C   UNL     1      24.788   2.818  51.719  0.00  0.00    +0.000 A 
ATOM      6  C   UNL     1      24.436   1.864  52.673  0.00  0.00    +0.000 A 
ENDROOT
BRANCH   3   7
ATOM      7  N   UNL     1      21.431   3.912  50.364  0.00  0.00    +0.000 N 
ATOM      8  C   UNL     1      20.045   3.705  50.164  0.00  0.00    +0.000 A 
ATOM      9  N   UNL     1      19.731   3.871  48.861  0.00  0.00    +0.000 NA
ATOM     10  C   UNL     1      18.438   3.794  48.508  0.00  0.00    +0.000 A 
ATOM     11  C   UNL     1      17.431   3.552  49.399  0.00  0.00    +0.000 A 
ATOM     12  C   UNL     1      17.804   3.386  50.721  0.00  0.00    +0.000 A 
ATOM     13  N   UNL     1      19.113   3.481  51.125  0.00  0.00    +0.000 NA
ATOM     14  H   UNL     1      21.786   4.651  49.819  0.00  0.00    +0.000 HD
BRANCH  12  15
ATOM     15  C   UNL     1      16.704   3.330  51.714  0.00  0.00    +0.000 A 
ATOM     16  C   UNL     1      16.190   4.432  52.411  0.00  0.00    +0.000 A 
ATOM     17  N   UNL     1      14.971   4.056  52.886  0.00  0.00    +0.000 N 
ATOM     18  C   UNL     1      14.667   2.817  52.391  0.00  0.00    +0.000 A 
ATOM     19  C   UNL     1      13.418   2.240  52.553  0.00  0.00    +0.000 A 
ATOM     20  C   UNL     1      13.492   0.929  52.980  0.00  0.00    +0.000 A 
ATOM     21  C   UNL     1      14.710   0.231  52.869  0.00  0.00    +0.000 A 
ATOM     22  C   UNL     1      15.870   0.815  52.282  0.00  0.00    +0.000 A 
ATOM     23  C   UNL     1      15.868   2.214  52.130  0.00  0.00    +0.000 A 
ATOM     24  C   UNL     1      12.303   3.229  52.579  0.00  0.00    +0.000 C 
ATOM     25  C   UNL     1      12.584   4.260  53.689  0.00  0.00    +0.000 C 
ATOM     26  C   UNL     1      14.104   4.490  53.980  0.00  0.00    +0.000 C 
ENDBRANCH  12  15
ENDBRANCH   3   7
BRANCH   1  29
ATOM     27  C   UNL     1      21.740  -0.346  53.652  0.00  0.00    +0.000 C 
ATOM     28  O   UNL     1      20.983  -0.483  52.701  0.00  0.00    +0.000 OA
ATOM     29  N   UNL     1      22.745   0.595  53.781  0.00  0.00    +0.000 N 
ATOM     30  H   UNL     1      23.305   0.529  54.589  0.00  0.00    +0.000 HD
BRANCH  27  32
ATOM     31  C   UNL     1      22.836  -1.564  55.450  0.00  0.00    +0.000 C 
ATOM     32  C   UNL     1      21.716  -1.319  54.766  0.00  0.00    +0.000 C 
ENDBRANCH  27  32
ENDBRANCH   1  29
BRANCH   6  33
ATOM     33  N   UNL     1      25.412   1.036  53.340  0.00  0.00    +0.000 N 
ATOM     34  C   UNL     1      25.975  -0.181  52.789  0.00  0.00    +0.000 C 
ATOM     35  C   UNL     1      27.386   0.416  52.909  0.00  0.00    +0.000 C 
ATOM     36  C   UNL     1      26.714   1.500  53.773  0.00  0.00    +0.000 C 
BRANCH  35  37
ATOM     37  N   UNL     1      28.273  -0.481  53.703  0.00  0.00    +0.000 N 
ATOM     38  C   UNL     1      28.385  -1.782  53.025  0.00  0.00    +0.000 C 
ATOM     39  C   UNL     1      29.618   0.103  53.795  0.00  0.00    +0.000 C 
ATOM     40  H   UNL     1      27.874  -0.595  54.635  0.00  0.00    +0.000 HD
ENDBRANCH  35  37
ENDBRANCH   6  33
BRANCH   4  41
ATOM     41  O   UNL     1      24.468   4.286  50.025  0.00  0.00    +0.000 OA
ATOM     42  C   UNL     1      25.838   4.121  49.731  0.00  0.00    +0.000 C 
ENDBRANCH   4  41
TORSDOF 7
ENDMDL
MODEL 6
REMARK VINA RESULT:    -8.535      3.918      8.970
REMARK INTER + INTRA:         -12.581
REMARK INTER:                 -11.971
REMARK INTRA:                  -0.611
REMARK UNBOUND:                -0.553
REMARK  Name = 
REMARK  10 active torsions:
REMARK  status: ('A' for Active; 'I' for Inactive)
REMARK    1  A    between atoms: C_2  and  C_3
REMARK    2  A    between atoms: N_5  and  C_6
REMARK    3  A    between atoms: C_8  and  N_9
REMARK    4  A    between atoms: C_14  and  C_15
REMARK    5  A    between atoms: C_28  and  O_29
REMARK    6  A    between atoms: O_29  and  C_30
REMARK    7  A    between atoms: C_32  and  N_33
REMARK    8  A    between atoms: C_35  and  N_36
REMARK    9  A    between atoms: N_36  and  C_37
REMARK   10  A    between atoms: N_36  and  C_38
REMARK                            x       y       z     vdW  Elec       q    Type
REMARK                         _______ _______ _______ _____ _____    ______ ____
ROOT
ATOM      1  C   UNL     1      23.653   4.076  50.151  0.00  0.00    +0.000 A 
ATOM      2  C   UNL     1      23.407   2.830  50.768  0.00  0.00    +0.000 A 
ATOM      3  C   UNL     1      24.442   2.023  51.274  0.00  0.00    +0.000 A 
ATOM      4  C   UNL     1      25.766   2.500  51.090  0.00  0.00    +0.000 A 
ATOM      5  C   UNL     1      26.008   3.723  50.410  0.00  0.00    +0.000 A 
ATOM      6  C   UNL     1      24.972   4.538  49.956  0.00  0.00    +0.000 A 
ENDROOT
BRANCH   3   7
ATOM      7  N   UNL     1      24.154   0.847  52.020  0.00  0.00    +0.000 N 
ATOM      8  C   UNL     1      23.020   0.353  52.709  0.00  0.00    +0.000 A 
ATOM      9  N   UNL     1      23.397  -0.261  53.851  0.00  0.00    +0.000 NA
ATOM     10  C   UNL     1      22.450  -0.863  54.587  0.00  0.00    +0.000 A 
ATOM     11  C   UNL     1      21.129  -0.881  54.240  0.00  0.00    +0.000 A 
ATOM     12  C   UNL     1      20.792  -0.236  53.062  0.00  0.00    +0.000 A 
ATOM     13  N   UNL     1      21.736   0.372  52.270  0.00  0.00    +0.000 NA
ATOM     14  H   UNL     1      24.923   0.235  52.069  0.00  0.00    +0.000 HD
BRANCH  12  15
ATOM     15  C   UNL     1      19.404  -0.428  52.580  0.00  0.00    +0.000 A 
ATOM     16  C   UNL     1      18.468  -1.306  53.144  0.00  0.00    +0.000 A 
ATOM     17  N   UNL     1      17.244  -0.903  52.707  0.00  0.00    +0.000 N 
ATOM     18  C   UNL     1      17.388   0.266  52.009  0.00  0.00    +0.000 A 
ATOM     19  C   UNL     1      16.302   1.016  51.587  0.00  0.00    +0.000 A 
ATOM     20  C   UNL     1      16.408   1.404  50.266  0.00  0.00    +0.000 A 
ATOM     21  C   UNL     1      17.658   1.336  49.621  0.00  0.00    +0.000 A 
ATOM     22  C   UNL     1      18.841   0.922  50.298  0.00  0.00    +0.000 A 
ATOM     23  C   UNL     1      18.669   0.258  51.527  0.00  0.00    +0.000 A 
ATOM     24  C   UNL     1      15.132   0.940  52.506  0.00  0.00    +0.000 C 
ATOM     25  C   UNL     1      14.744  -0.540  52.690  0.00  0.00    +0.000 C 
ATOM     26  C   UNL     1      15.939  -1.539  52.541  0.00  0.00    +0.000 C 
ENDBRANCH  12  15
ENDBRANCH   3   7
BRANCH   1  29
ATOM     27  C   UNL     1      21.823   5.725  50.612  0.00  0.00    +0.000 C 
ATOM     28  O   UNL     1      21.892   5.791  51.831  0.00  0.00    +0.000 OA
ATOM     29  N   UNL     1      22.632   4.977  49.776  0.00  0.00    +0.000 N 
ATOM     30  H   UNL     1      22.479   5.083  48.809  0.00  0.00    +0.000 HD
BRANCH  27  32
ATOM     31  C   UNL     1      20.825   7.894  50.148  0.00  0.00    +0.000 C 
ATOM     32  C   UNL     1      20.876   6.589  49.874  0.00  0.00    +0.000 C 
ENDBRANCH  27  32
ENDBRANCH   1  29
BRANCH   6  33
ATOM     33  N   UNL     1      25.201   5.858  49.418  0.00  0.00    +0.000 N 
ATOM     34  C   UNL     1      25.546   7.023  50.210  0.00  0.00    +0.000 C 
ATOM     35  C   UNL     1      26.837   7.196  49.395  0.00  0.00    +0.000 C 
ATOM     36  C   UNL     1      26.212   6.170  48.430  0.00  0.00    +0.000 C 
BRANCH  35  37
ATOM     37  N   UNL     1      26.911   8.563  48.807  0.00  0.00    +0.000 N 
ATOM     38  C   UNL     1      27.504   9.486  49.788  0.00  0.00    +0.000 C 
ATOM     39  C   UNL     1      27.773   8.548  47.617  0.00  0.00    +0.000 C 
ATOM     40  H   UNL     1      25.969   8.864  48.555  0.00  0.00    +0.000 HD
ENDBRANCH  35  37
ENDBRANCH   6  33
BRANCH   4  41
ATOM     41  O   UNL     1      26.966   1.991  51.509  0.00  0.00    +0.000 OA
ATOM     42  C   UNL     1      27.430   2.144  52.833  0.00  0.00    +0.000 C 
ENDBRANCH   4  41
TORSDOF 7
ENDMDL
MODEL 7
REMARK VINA RESULT:    -8.428      2.631     10.388
REMARK INTER + INTRA:         -12.431
REMARK INTER:                 -11.921
REMARK INTRA:                  -0.510
REMARK UNBOUND:                -0.553
REMARK  Name = 
REMARK  10 active torsions:
REMARK  status: ('A' for Active; 'I' for Inactive)
REMARK    1  A    between atoms: C_2  and  C_3
REMARK    2  A    between atoms: N_5  and  C_6
REMARK    3  A    between atoms: C_8  and  N_9
REMARK    4  A    between atoms: C_14  and  C_15
REMARK    5  A    between atoms: C_28  and  O_29
REMARK    6  A    between atoms: O_29  and  C_30
REMARK    7  A    between atoms: C_32  and  N_33
REMARK    8  A    between atoms: C_35  and  N_36
REMARK    9  A    between atoms: N_36  and  C_37
REMARK   10  A    between atoms: N_36  and  C_38
REMARK                            x       y       z     vdW  Elec       q    Type
REMARK                         _______ _______ _______ _____ _____    ______ ____
ROOT
ATOM      1  C   UNL     1      23.124   1.285  51.892  0.00  0.00    +0.000 A 
ATOM      2  C   UNL     1      22.341   2.016  50.973  0.00  0.00    +0.000 A 
ATOM      3  C   UNL     1      22.885   3.019  50.151  0.00  0.00    +0.000 A 
ATOM      4  C   UNL     1      24.265   3.302  50.325  0.00  0.00    +0.000 A 
ATOM      5  C   UNL     1      25.031   2.607  51.299  0.00  0.00    +0.000 A 
ATOM      6  C   UNL     1      24.491   1.581  52.073  0.00  0.00    +0.000 A 
ENDROOT
BRANCH   3   7
ATOM      7  N   UNL     1      22.106   3.633  49.132  0.00  0.00    +0.000 N 
ATOM      8  C   UNL     1      20.848   3.367  48.538  0.00  0.00    +0.000 A 
ATOM      9  N   UNL     1      20.896   3.612  47.211  0.00  0.00    +0.000 NA
ATOM     10  C   UNL     1      19.762   3.493  46.505  0.00  0.00    +0.000 A 
ATOM     11  C   UNL     1      18.567   3.131  47.061  0.00  0.00    +0.000 A 
ATOM     12  C   UNL     1      18.571   2.887  48.424  0.00  0.00    +0.000 A 
ATOM     13  N   UNL     1      19.706   3.022  49.184  0.00  0.00    +0.000 NA
ATOM     14  H   UNL     1      22.544   4.428  48.751  0.00  0.00    +0.000 HD
BRANCH  12  15
ATOM     15  C   UNL     1      17.246   2.697  49.062  0.00  0.00    +0.000 A 
ATOM     16  C   UNL     1      16.231   1.858  48.580  0.00  0.00    +0.000 A 
ATOM     17  N   UNL     1      15.379   1.644  49.619  0.00  0.00    +0.000 N 
ATOM     18  C   UNL     1      15.907   2.210  50.748  0.00  0.00    +0.000 A 
ATOM     19  C   UNL     1      15.358   2.010  52.004  0.00  0.00    +0.000 A 
ATOM     20  C   UNL     1      15.217   3.187  52.713  0.00  0.00    +0.000 A 
ATOM     21  C   UNL     1      15.917   4.336  52.297  0.00  0.00    +0.000 A 
ATOM     22  C   UNL     1      16.812   4.320  51.188  0.00  0.00    +0.000 A 
ATOM     23  C   UNL     1      16.720   3.222  50.313  0.00  0.00    +0.000 A 
ATOM     24  C   UNL     1      14.729   0.670  52.174  0.00  0.00    +0.000 C 
ATOM     25  C   UNL     1      13.670   0.479  51.070  0.00  0.00    +0.000 C 
ATOM     26  C   UNL     1      13.975   1.257  49.748  0.00  0.00    +0.000 C 
ENDBRANCH  12  15
ENDBRANCH   3   7
BRANCH   1  29
ATOM     27  C   UNL     1      21.559   0.131  53.473  0.00  0.00    +0.000 C 
ATOM     28  O   UNL     1      20.778   1.043  53.709  0.00  0.00    +0.000 OA
ATOM     29  N   UNL     1      22.642   0.171  52.615  0.00  0.00    +0.000 N 
ATOM     30  H   UNL     1      23.135  -0.673  52.494  0.00  0.00    +0.000 HD
BRANCH  27  32
ATOM     31  C   UNL     1      22.120  -1.675  55.003  0.00  0.00    +0.000 C 
ATOM     32  C   UNL     1      21.321  -1.215  54.038  0.00  0.00    +0.000 C 
ENDBRANCH  27  32
ENDBRANCH   1  29
BRANCH   6  33
ATOM     33  N   UNL     1      25.298   0.757  52.942  0.00  0.00    +0.000 N 
ATOM     34  C   UNL     1      26.125  -0.347  52.496  0.00  0.00    +0.000 C 
ATOM     35  C   UNL     1      27.363   0.335  53.101  0.00  0.00    +0.000 C 
ATOM     36  C   UNL     1      26.351   1.264  53.798  0.00  0.00    +0.000 C 
BRANCH  35  37
ATOM     37  N   UNL     1      28.054  -0.577  54.056  0.00  0.00    +0.000 N 
ATOM     38  C   UNL     1      28.969  -1.460  53.314  0.00  0.00    +0.000 C 
ATOM     39  C   UNL     1      28.851   0.208  55.008  0.00  0.00    +0.000 C 
ATOM     40  H   UNL     1      27.351  -1.125  54.554  0.00  0.00    +0.000 HD
ENDBRANCH  35  37
ENDBRANCH   6  33
BRANCH   4  41
ATOM     41  O   UNL     1      25.093   4.162  49.654  0.00  0.00    +0.000 OA
ATOM     42  C   UNL     1      26.483   3.944  49.548  0.00  0.00    +0.000 C 
ENDBRANCH   4  41
TORSDOF 7
ENDMDL
MODEL 8
REMARK VINA RESULT:    -8.376      2.119      2.352
REMARK INTER + INTRA:         -12.358
REMARK INTER:                 -11.978
REMARK INTRA:                  -0.380
REMARK UNBOUND:                -0.553
REMARK  Name = 
REMARK  10 active torsions:
REMARK  status: ('A' for Active; 'I' for Inactive)
REMARK    1  A    between atoms: C_2  and  C_3
REMARK    2  A    between atoms: N_5  and  C_6
REMARK    3  A    between atoms: C_8  and  N_9
REMARK    4  A    between atoms: C_14  and  C_15
REMARK    5  A    between atoms: C_28  and  O_29
REMARK    6  A    between atoms: O_29  and  C_30
REMARK    7  A    between atoms: C_32  and  N_33
REMARK    8  A    between atoms: C_35  and  N_36
REMARK    9  A    between atoms: N_36  and  C_37
REMARK   10  A    between atoms: N_36  and  C_38
REMARK                            x       y       z     vdW  Elec       q    Type
REMARK                         _______ _______ _______ _____ _____    ______ ____
ROOT
ATOM      1  C   UNL     1      17.780   2.858  50.572  0.00  0.00    +0.000 A 
ATOM      2  C   UNL     1      18.350   2.101  51.618  0.00  0.00    +0.000 A 
ATOM      3  C   UNL     1      19.715   2.182  51.949  0.00  0.00    +0.000 A 
ATOM      4  C   UNL     1      20.514   3.031  51.140  0.00  0.00    +0.000 A 
ATOM      5  C   UNL     1      19.945   3.738  50.048  0.00  0.00    +0.000 A 
ATOM      6  C   UNL     1      18.582   3.689  49.761  0.00  0.00    +0.000 A 
ENDROOT
BRANCH   3   7
ATOM      7  N   UNL     1      20.229   1.523  53.100  0.00  0.00    +0.000 N 
ATOM      8  C   UNL     1      21.372   0.732  53.372  0.00  0.00    +0.000 A 
ATOM      9  N   UNL     1      21.054  -0.278  54.209  0.00  0.00    +0.000 NA
ATOM     10  C   UNL     1      22.042  -1.077  54.640  0.00  0.00    +0.000 A 
ATOM     11  C   UNL     1      23.348  -0.920  54.270  0.00  0.00    +0.000 A 
ATOM     12  C   UNL     1      23.622   0.128  53.408  0.00  0.00    +0.000 A 
ATOM     13  N   UNL     1      22.642   0.981  52.964  0.00  0.00    +0.000 NA
ATOM     14  H   UNL     1      19.655   1.644  53.891  0.00  0.00    +0.000 HD
BRANCH  12  15
ATOM     15  C   UNL     1      25.055   0.426  53.169  0.00  0.00    +0.000 A 
ATOM     16  C   UNL     1      25.604   1.711  53.056  0.00  0.00    +0.000 A 
ATOM     17  N   UNL     1      26.944   1.580  53.254  0.00  0.00    +0.000 N 
ATOM     18  C   UNL     1      27.212   0.288  53.617  0.00  0.00    +0.000 A 
ATOM     19  C   UNL     1      28.463  -0.114  54.057  0.00  0.00    +0.000 A 
ATOM     20  C   UNL     1      28.892  -1.274  53.442  0.00  0.00    +0.000 A 
ATOM     21  C   UNL     1      27.962  -2.084  52.761  0.00  0.00    +0.000 A 
ATOM     22  C   UNL     1      26.572  -1.775  52.722  0.00  0.00    +0.000 A 
ATOM     23  C   UNL     1      26.201  -0.467  53.085  0.00  0.00    +0.000 A 
ATOM     24  C   UNL     1      29.202   0.943  54.802  0.00  0.00    +0.000 C 
ATOM     25  C   UNL     1      29.306   2.195  53.908  0.00  0.00    +0.000 C 
ATOM     26  C   UNL     1      28.128   2.354  52.890  0.00  0.00    +0.000 C 
ENDBRANCH  12  15
ENDBRANCH   3   7
BRANCH   1  29
ATOM     27  C   UNL     1      15.415   3.479  51.119  0.00  0.00    +0.000 C 
ATOM     28  O   UNL     1      15.587   4.087  52.167  0.00  0.00    +0.000 OA
ATOM     29  N   UNL     1      16.393   2.918  50.318  0.00  0.00    +0.000 N 
ATOM     30  H   UNL     1      16.087   2.514  49.473  0.00  0.00    +0.000 HD
BRANCH  27  32
ATOM     31  C   UNL     1      13.254   4.451  50.569  0.00  0.00    +0.000 C 
ATOM     32  C   UNL     1      14.063   3.390  50.526  0.00  0.00    +0.000 C 
ENDBRANCH  27  32
ENDBRANCH   1  29
BRANCH   6  33
ATOM     33  N   UNL     1      17.967   4.532  48.763  0.00  0.00    +0.000 N 
ATOM     34  C   UNL     1      18.420   5.866  48.419  0.00  0.00    +0.000 C 
ATOM     35  C   UNL     1      18.616   5.425  46.961  0.00  0.00    +0.000 C 
ATOM     36  C   UNL     1      17.821   4.169  47.368  0.00  0.00    +0.000 C 
BRANCH  35  37
ATOM     37  N   UNL     1      17.853   6.308  46.034  0.00  0.00    +0.000 N 
ATOM     38  C   UNL     1      18.522   7.616  45.945  0.00  0.00    +0.000 C 
ATOM     39  C   UNL     1      17.827   5.717  44.690  0.00  0.00    +0.000 C 
ATOM     40  H   UNL     1      16.903   6.415  46.390  0.00  0.00    +0.000 HD
ENDBRANCH  35  37
ENDBRANCH   6  33
BRANCH   4  41
ATOM     41  O   UNL     1      21.838   3.368  51.234  0.00  0.00    +0.000 OA
ATOM     42  C   UNL     1      22.288   4.455  52.013  0.00  0.00    +0.000 C 
ENDBRANCH   4  41
TORSDOF 7
ENDMDL
MODEL 9
REMARK VINA RESULT:    -7.847      2.705     10.887
REMARK INTER + INTRA:         -11.611
REMARK INTER:                 -11.228
REMARK INTRA:                  -0.383
REMARK UNBOUND:                -0.553
REMARK  Name = 
REMARK  10 active torsions:
REMARK  status: ('A' for Active; 'I' for Inactive)
REMARK    1  A    between atoms: C_2  and  C_3
REMARK    2  A    between atoms: N_5  and  C_6
REMARK    3  A    between atoms: C_8  and  N_9
REMARK    4  A    between atoms: C_14  and  C_15
REMARK    5  A    between atoms: C_28  and  O_29
REMARK    6  A    between atoms: O_29  and  C_30
REMARK    7  A    between atoms: C_32  and  N_33
REMARK    8  A    between atoms: C_35  and  N_36
REMARK    9  A    between atoms: N_36  and  C_37
REMARK   10  A    between atoms: N_36  and  C_38
REMARK                            x       y       z     vdW  Elec       q    Type
REMARK                         _______ _______ _______ _____ _____    ______ ____
ROOT
ATOM      1  C   UNL     1      23.759   2.056  51.242  0.00  0.00    +0.000 A 
ATOM      2  C   UNL     1      22.355   2.197  51.180  0.00  0.00    +0.000 A 
ATOM      3  C   UNL     1      21.491   1.527  52.065  0.00  0.00    +0.000 A 
ATOM      4  C   UNL     1      22.099   0.653  53.004  0.00  0.00    +0.000 A 
ATOM      5  C   UNL     1      23.507   0.467  53.016  0.00  0.00    +0.000 A 
ATOM      6  C   UNL     1      24.356   1.174  52.167  0.00  0.00    +0.000 A 
ENDROOT
BRANCH   3   7
ATOM      7  N   UNL     1      20.096   1.802  52.074  0.00  0.00    +0.000 N 
ATOM      8  C   UNL     1      19.235   2.630  51.313  0.00  0.00    +0.000 A 
ATOM      9  N   UNL     1      18.301   3.191  52.110  0.00  0.00    +0.000 NA
ATOM     10  C   UNL     1      17.348   3.941  51.535  0.00  0.00    +0.000 A 
ATOM     11  C   UNL     1      17.282   4.166  50.189  0.00  0.00    +0.000 A 
ATOM     12  C   UNL     1      18.263   3.571  49.416  0.00  0.00    +0.000 A 
ATOM     13  N   UNL     1      19.241   2.778  49.964  0.00  0.00    +0.000 NA
ATOM     14  H   UNL     1      19.618   1.300  52.774  0.00  0.00    +0.000 HD
BRANCH  12  15
ATOM     15  C   UNL     1      18.077   3.642  47.947  0.00  0.00    +0.000 A 
ATOM     16  C   UNL     1      19.081   3.417  46.994  0.00  0.00    +0.000 A 
ATOM     17  N   UNL     1      18.449   3.170  45.815  0.00  0.00    +0.000 N 
ATOM     18  C   UNL     1      17.101   3.102  46.042  0.00  0.00    +0.000 A 
ATOM     19  C   UNL     1      16.205   2.690  45.069  0.00  0.00    +0.000 A 
ATOM     20  C   UNL     1      15.113   3.531  44.965  0.00  0.00    +0.000 A 
ATOM     21  C   UNL     1      14.835   4.439  46.004  0.00  0.00    +0.000 A 
ATOM     22  C   UNL     1      15.617   4.494  47.194  0.00  0.00    +0.000 A 
ATOM     23  C   UNL     1      16.873   3.859  47.160  0.00  0.00    +0.000 A 
ATOM     24  C   UNL     1      16.764   1.673  44.135  0.00  0.00    +0.000 C 
ATOM     25  C   UNL     1      18.049   2.241  43.499  0.00  0.00    +0.000 C 
ATOM     26  C   UNL     1      18.811   3.267  44.402  0.00  0.00    +0.000 C 
ENDBRANCH  12  15
ENDBRANCH   3   7
BRANCH   1  29
ATOM     27  C   UNL     1      24.999   4.157  50.670  0.00  0.00    +0.000 C 
ATOM     28  O   UNL     1      24.637   4.880  51.589  0.00  0.00    +0.000 OA
ATOM     29  N   UNL     1      24.655   2.832  50.475  0.00  0.00    +0.000 N 
ATOM     30  H   UNL     1      25.084   2.376  49.714  0.00  0.00    +0.000 HD
BRANCH  27  32
ATOM     31  C   UNL     1      25.687   5.668  48.892  0.00  0.00    +0.000 C 
ATOM     32  C   UNL     1      25.996   4.643  49.691  0.00  0.00    +0.000 C 
ENDBRANCH  27  32
ENDBRANCH   1  29
BRANCH   6  33
ATOM     33  N   UNL     1      25.794   1.121  52.285  0.00  0.00    +0.000 N 
ATOM     34  C   UNL     1      26.531   1.384  53.506  0.00  0.00    +0.000 C 
ATOM     35  C   UNL     1      27.154  -0.019  53.433  0.00  0.00    +0.000 C 
ATOM     36  C   UNL     1      26.592  -0.054  51.999  0.00  0.00    +0.000 C 
BRANCH  35  37
ATOM     37  N   UNL     1      28.642   0.062  53.462  0.00  0.00    +0.000 N 
ATOM     38  C   UNL     1      29.073   0.687  54.723  0.00  0.00    +0.000 C 
ATOM     39  C   UNL     1      29.216  -1.289  53.403  0.00  0.00    +0.000 C 
ATOM     40  H   UNL     1      28.956   0.613  52.662  0.00  0.00    +0.000 HD
ENDBRANCH  35  37
ENDBRANCH   6  33
BRANCH   4  41
ATOM     41  O   UNL     1      21.554  -0.086  54.020  0.00  0.00    +0.000 OA
ATOM     42  C   UNL     1      22.339  -0.890  54.874  0.00  0.00    +0.000 C 
ENDBRANCH   4  41
TORSDOF 7
ENDMDL
