REMARK  Name = 
REMARK  9 active torsions:
REMARK  status: ('A' for Active; 'I' for Inactive)
REMARK    1  A    between atoms: C_1  and  C_2
REMARK    2  A    between atoms: C_2  and  O_3
REMARK    3  A    between atoms: O_3  and  C_4
REMARK    4  A    between atoms: C_10  and  N_11
REMARK    5  A    between atoms: N_11  and  C_12
REMARK    6  A    between atoms: C_16  and  C_17
REMARK    7  A    between atoms: C_25  and  O_26
REMARK    8  A    between atoms: O_26  and  C_27
REMARK    9  A    between atoms: C_27  and  C_28
REMARK                            x       y       z     vdW  Elec       q    Type
REMARK                         _______ _______ _______ _____ _____    ______ ____
ROOT
ATOM      1  C   UNL     1       2.209  -2.189  -1.602  0.00  0.00    +0.000 A 
ATOM      2  C   UNL     1       2.715  -2.748  -2.780  0.00  0.00    +0.000 A 
ATOM      3  C   UNL     1       4.074  -2.980  -2.966  0.00  0.00    +0.000 A 
ATOM      4  N   UNL     1       4.477  -3.494  -4.130  0.00  0.00    +0.000 NA
ATOM      5  C   UNL     1       5.792  -3.693  -4.281  0.00  0.00    +0.000 A 
ATOM      6  N   UNL     1       6.742  -3.412  -3.382  0.00  0.00    +0.000 NA
ATOM      7  C   UNL     1       6.339  -2.882  -2.214  0.00  0.00    +0.000 A 
ATOM      8  C   UNL     1       4.969  -2.654  -1.936  0.00  0.00    +0.000 A 
ATOM      9  C   UNL     1       4.454  -2.110  -0.732  0.00  0.00    +0.000 A 
ATOM     10  C   UNL     1       3.093  -1.842  -0.582  0.00  0.00    +0.000 A 
ENDROOT
BRANCH   7  11
ATOM     11  N   UNL     1       7.308  -2.628  -1.193  0.00  0.00    +0.000 N 
ATOM     12  H   UNL     1       6.965  -2.545  -0.274  0.00  0.00    +0.000 HD
BRANCH  11  13
ATOM     13  C   UNL     1       8.714  -2.482  -1.362  0.00  0.00    +0.000 A 
ATOM     14  C   UNL     1       9.279  -1.884  -2.493  0.00  0.00    +0.000 A 
ATOM     15  C   UNL     1      10.639  -1.576  -2.530  0.00  0.00    +0.000 A 
ATOM     16  C   UNL     1      11.444  -1.836  -1.421  0.00  0.00    +0.000 A 
ATOM     17  C   UNL     1      10.908  -2.412  -0.260  0.00  0.00    +0.000 A 
ATOM     18  C   UNL     1       9.537  -2.724  -0.247  0.00  0.00    +0.000 A 
BRANCH  17  19
ATOM     19  C   UNL     1      11.784  -2.590   0.911  0.00  0.00    +0.000 A 
ATOM     20  N   UNL     1      12.816  -1.810   1.180  0.00  0.00    +0.000 NA
ATOM     21  C   UNL     1      13.437  -2.217   2.342  0.00  0.00    +0.000 A 
ATOM     22  C   UNL     1      12.894  -3.329   2.945  0.00  0.00    +0.000 A 
ATOM     23  S   UNL     1      11.552  -3.880   2.034  0.00  0.00    +0.000 S 
ENDBRANCH  17  19
ENDBRANCH  11  13
ENDBRANCH   7  11
BRANCH   1  24
ATOM     24  O   UNL     1       0.885  -1.871  -1.492  0.00  0.00    +0.000 OA
BRANCH  24  26
ATOM     25  C   UNL     1      -0.885  -2.877  -2.784  0.00  0.00    +0.000 C 
ATOM     26  C   UNL     1      -0.009  -2.986  -1.547  0.00  0.00    +0.000 C 
ENDBRANCH  24  26
ENDBRANCH   1  24
BRANCH  10  27
ATOM     27  O   UNL     1       2.733  -1.311   0.626  0.00  0.00    +0.000 OA
BRANCH  27  28
ATOM     28  C   UNL     1       1.992  -0.092   0.520  0.00  0.00    +0.000 C 
ATOM     29  C   UNL     1       2.106   0.641   1.845  0.00  0.00    +0.000 C 
ENDBRANCH  27  28
ENDBRANCH  10  27
TORSDOF 7
