MODEL 1
REMARK VINA RESULT:    -8.559      0.000      0.000
REMARK INTER + INTRA:         -13.356
REMARK INTER:                 -12.062
REMARK INTRA:                  -1.294
REMARK UNBOUND:                -1.294
REMARK  Name = 
REMARK  10 active torsions:
REMARK  status: ('A' for Active; 'I' for Inactive)
REMARK    1  A    between atoms: C_2  and  C_3
REMARK    2  A    between atoms: N_5  and  C_6
REMARK    3  A    between atoms: C_11  and  C_12
REMARK    4  A    between atoms: C_17  and  C_18
REMARK    5  A    between atoms: C_21  and  C_22
REMARK    6  A    between atoms: C_24  and  O_25
REMARK    7  A    between atoms: O_25  and  C_26
REMARK    8  A    between atoms: C_27  and  C_28
REMARK    9  A    between atoms: C_29  and  O_30
REMARK   10  A    between atoms: O_30  and  C_31
REMARK                            x       y       z     vdW  Elec       q    Type
REMARK                         _______ _______ _______ _____ _____    ______ ____
ROOT
ATOM      1  C   UNL     1      23.653   5.319  51.513  0.00  0.00    +0.000 C 
ATOM      2  C   UNL     1      23.315   6.809  51.238  0.00  0.00    +0.000 C 
ATOM      3  C   UNL     1      22.537   6.944  49.932  0.00  0.00    +0.000 C 
ATOM      4  N   UNL     1      21.330   6.137  49.996  0.00  0.00    +0.000 N 
ATOM      5  C   UNL     1      21.317   4.962  50.672  0.00  0.00    +0.000 A 
ATOM      6  C   UNL     1      20.340   4.005  50.869  0.00  0.00    +0.000 A 
ATOM      7  C   UNL     1      20.960   3.010  51.711  0.00  0.00    +0.000 A 
ATOM      8  N   UNL     1      22.245   3.339  51.971  0.00  0.00    +0.000 NA
ATOM      9  N   UNL     1      22.410   4.544  51.384  0.00  0.00    +0.000 N 
ATOM     10  H   UNL     1      20.513   6.447  49.544  0.00  0.00    +0.000 HD
ENDROOT
BRANCH   7  11
ATOM     11  C   UNL     1      20.406   1.721  52.168  0.00  0.00    +0.000 A 
ATOM     12  C   UNL     1      19.345   1.136  51.474  0.00  0.00    +0.000 A 
ATOM     13  C   UNL     1      18.734  -0.040  51.921  0.00  0.00    +0.000 A 
ATOM     14  C   UNL     1      19.197  -0.686  53.090  0.00  0.00    +0.000 A 
ATOM     15  C   UNL     1      18.421  -1.868  53.613  0.00  0.00    +0.000 C 
ATOM     16  C   UNL     1      20.339  -0.167  53.733  0.00  0.00    +0.000 A 
ATOM     17  C   UNL     1      20.918   1.038  53.276  0.00  0.00    +0.000 A 
BRANCH  13  18
ATOM     18  O   UNL     1      17.671  -0.627  51.279  0.00  0.00    +0.000 OA
ATOM     19  C   UNL     1      17.276  -0.086  50.025  0.00  0.00    +0.000 C 
ENDBRANCH  13  18
BRANCH  16  20
ATOM     20  O   UNL     1      20.951  -0.657  54.858  0.00  0.00    +0.000 OA
ATOM     21  C   UNL     1      22.036  -1.565  54.698  0.00  0.00    +0.000 C 
ENDBRANCH  16  20
ENDBRANCH   7  11
BRANCH   1  27
ATOM     22  C   UNL     1      25.421   3.544  50.607  0.00  0.00    +0.000 A 
ATOM     23  C   UNL     1      26.465   3.306  49.690  0.00  0.00    +0.000 A 
ATOM     24  C   UNL     1      26.984   4.313  48.876  0.00  0.00    +0.000 A 
ATOM     25  C   UNL     1      26.476   5.594  48.968  0.00  0.00    +0.000 A 
ATOM     26  C   UNL     1      25.445   5.856  49.867  0.00  0.00    +0.000 A 
ATOM     27  C   UNL     1      24.867   4.844  50.689  0.00  0.00    +0.000 A 
BRANCH  22  30
ATOM     28  C   UNL     1      25.567   2.132  52.665  0.00  0.00    +0.000 C 
ATOM     29  O   UNL     1      26.577   2.598  53.179  0.00  0.00    +0.000 OA
ATOM     30  N   UNL     1      25.004   2.493  51.456  0.00  0.00    +0.000 N 
ATOM     31  H   UNL     1      24.231   1.963  51.153  0.00  0.00    +0.000 HD
BRANCH  28  33
ATOM     32  C   UNL     1      25.328  -0.241  53.272  0.00  0.00    +0.000 C 
ATOM     33  C   UNL     1      24.840   1.006  53.319  0.00  0.00    +0.000 C 
ENDBRANCH  28  33
ENDBRANCH  22  30
ENDBRANCH   1  27
BRANCH   6  34
ATOM     34  C   UNL     1      18.997   4.040  50.319  0.00  0.00    +0.000 C 
ATOM     35  N   UNL     1      18.895   3.640  49.015  0.00  0.00    +0.000 N 
ATOM     36  O   UNL     1      17.991   4.345  50.953  0.00  0.00    +0.000 OA
ATOM     37  H   UNL     1      19.704   3.396  48.509  0.00  0.00    +0.000 HD
ATOM     38  H   UNL     1      18.012   3.594  48.581  0.00  0.00    +0.000 HD
ENDBRANCH   6  34
TORSDOF 7
ENDMDL
MODEL 2
REMARK VINA RESULT:    -8.417      2.904      4.779
REMARK INTER + INTRA:         -13.156
REMARK INTER:                 -12.104
REMARK INTRA:                  -1.052
REMARK UNBOUND:                -1.294
REMARK  Name = 
REMARK  10 active torsions:
REMARK  status: ('A' for Active; 'I' for Inactive)
REMARK    1  A    between atoms: C_2  and  C_3
REMARK    2  A    between atoms: N_5  and  C_6
REMARK    3  A    between atoms: C_11  and  C_12
REMARK    4  A    between atoms: C_17  and  C_18
REMARK    5  A    between atoms: C_21  and  C_22
REMARK    6  A    between atoms: C_24  and  O_25
REMARK    7  A    between atoms: O_25  and  C_26
REMARK    8  A    between atoms: C_27  and  C_28
REMARK    9  A    between atoms: C_29  and  O_30
REMARK   10  A    between atoms: O_30  and  C_31
REMARK                            x       y       z     vdW  Elec       q    Type
REMARK                         _______ _______ _______ _____ _____    ______ ____
ROOT
ATOM      1  C   UNL     1      23.815   5.586  49.422  0.00  0.00    +0.000 C 
ATOM      2  C   UNL     1      22.885   6.255  48.374  0.00  0.00    +0.000 C 
ATOM      3  C   UNL     1      22.693   5.336  47.171  0.00  0.00    +0.000 C 
ATOM      4  N   UNL     1      22.151   4.062  47.612  0.00  0.00    +0.000 N 
ATOM      5  C   UNL     1      22.499   3.539  48.813  0.00  0.00    +0.000 A 
ATOM      6  C   UNL     1      22.164   2.362  49.456  0.00  0.00    +0.000 A 
ATOM      7  C   UNL     1      22.849   2.426  50.725  0.00  0.00    +0.000 A 
ATOM      8  N   UNL     1      23.578   3.559  50.817  0.00  0.00    +0.000 NA
ATOM      9  N   UNL     1      23.300   4.233  49.681  0.00  0.00    +0.000 N 
ATOM     10  H   UNL     1      21.524   3.573  47.032  0.00  0.00    +0.000 HD
ENDROOT
BRANCH   7  11
ATOM     11  C   UNL     1      22.917   1.398  51.782  0.00  0.00    +0.000 A 
ATOM     12  C   UNL     1      21.744   0.797  52.243  0.00  0.00    +0.000 A 
ATOM     13  C   UNL     1      21.754  -0.118  53.301  0.00  0.00    +0.000 A 
ATOM     14  C   UNL     1      22.971  -0.478  53.923  0.00  0.00    +0.000 A 
ATOM     15  C   UNL     1      22.920  -1.356  55.148  0.00  0.00    +0.000 C 
ATOM     16  C   UNL     1      24.171   0.035  53.391  0.00  0.00    +0.000 A 
ATOM     17  C   UNL     1      24.129   0.979  52.341  0.00  0.00    +0.000 A 
BRANCH  13  18
ATOM     18  O   UNL     1      20.617  -0.706  53.798  0.00  0.00    +0.000 OA
ATOM     19  C   UNL     1      19.391  -0.448  53.124  0.00  0.00    +0.000 C 
ENDBRANCH  13  18
BRANCH  16  20
ATOM     20  O   UNL     1      25.446  -0.209  53.835  0.00  0.00    +0.000 OA
ATOM     21  C   UNL     1      26.502   0.609  53.345  0.00  0.00    +0.000 C 
ENDBRANCH  16  20
ENDBRANCH   7  11
BRANCH   1  27
ATOM     22  C   UNL     1      26.036   6.880  48.724  0.00  0.00    +0.000 A 
ATOM     23  C   UNL     1      27.426   6.775  48.512  0.00  0.00    +0.000 A 
ATOM     24  C   UNL     1      28.097   5.554  48.574  0.00  0.00    +0.000 A 
ATOM     25  C   UNL     1      27.389   4.398  48.841  0.00  0.00    +0.000 A 
ATOM     26  C   UNL     1      26.015   4.475  49.053  0.00  0.00    +0.000 A 
ATOM     27  C   UNL     1      25.302   5.710  49.032  0.00  0.00    +0.000 A 
BRANCH  22  30
ATOM     28  C   UNL     1      25.086   8.755  47.370  0.00  0.00    +0.000 C 
ATOM     29  O   UNL     1      25.351   8.365  46.239  0.00  0.00    +0.000 OA
ATOM     30  N   UNL     1      25.414   8.140  48.563  0.00  0.00    +0.000 N 
ATOM     31  H   UNL     1      25.190   8.629  49.388  0.00  0.00    +0.000 HD
BRANCH  28  33
ATOM     32  C   UNL     1      23.079  10.100  47.840  0.00  0.00    +0.000 C 
ATOM     33  C   UNL     1      24.392  10.059  47.574  0.00  0.00    +0.000 C 
ENDBRANCH  28  33
ENDBRANCH  22  30
ENDBRANCH   1  27
BRANCH   6  34
ATOM     34  C   UNL     1      21.309   1.319  48.921  0.00  0.00    +0.000 C 
ATOM     35  N   UNL     1      19.971   1.494  49.148  0.00  0.00    +0.000 N 
ATOM     36  O   UNL     1      21.704   0.363  48.261  0.00  0.00    +0.000 OA
ATOM     37  H   UNL     1      19.657   2.262  49.678  0.00  0.00    +0.000 HD
ATOM     38  H   UNL     1      19.321   0.852  48.780  0.00  0.00    +0.000 HD
ENDBRANCH   6  34
TORSDOF 7
ENDMDL
MODEL 3
REMARK VINA RESULT:    -8.344      3.849      9.134
REMARK INTER + INTRA:         -13.053
REMARK INTER:                 -12.034
REMARK INTRA:                  -1.019
REMARK UNBOUND:                -1.294
REMARK  Name = 
REMARK  10 active torsions:
REMARK  status: ('A' for Active; 'I' for Inactive)
REMARK    1  A    between atoms: C_2  and  C_3
REMARK    2  A    between atoms: N_5  and  C_6
REMARK    3  A    between atoms: C_11  and  C_12
REMARK    4  A    between atoms: C_17  and  C_18
REMARK    5  A    between atoms: C_21  and  C_22
REMARK    6  A    between atoms: C_24  and  O_25
REMARK    7  A    between atoms: O_25  and  C_26
REMARK    8  A    between atoms: C_27  and  C_28
REMARK    9  A    between atoms: C_29  and  O_30
REMARK   10  A    between atoms: O_30  and  C_31
REMARK                            x       y       z     vdW  Elec       q    Type
REMARK                         _______ _______ _______ _____ _____    ______ ____
ROOT
ATOM      1  C   UNL     1      24.577   3.600  50.272  0.00  0.00    +0.000 C 
ATOM      2  C   UNL     1      23.191   4.039  50.816  0.00  0.00    +0.000 C 
ATOM      3  C   UNL     1      23.361   5.066  51.933  0.00  0.00    +0.000 C 
ATOM      4  N   UNL     1      24.114   6.206  51.438  0.00  0.00    +0.000 N 
ATOM      5  C   UNL     1      25.094   6.042  50.517  0.00  0.00    +0.000 A 
ATOM      6  C   UNL     1      25.965   6.925  49.907  0.00  0.00    +0.000 A 
ATOM      7  C   UNL     1      26.739   6.114  48.998  0.00  0.00    +0.000 A 
ATOM      8  N   UNL     1      26.374   4.816  49.088  0.00  0.00    +0.000 NA
ATOM      9  N   UNL     1      25.345   4.815  49.962  0.00  0.00    +0.000 N 
ATOM     10  H   UNL     1      23.910   7.107  51.776  0.00  0.00    +0.000 HD
ENDROOT
BRANCH   7  11
ATOM     11  C   UNL     1      27.875   6.519  48.148  0.00  0.00    +0.000 A 
ATOM     12  C   UNL     1      29.105   5.869  48.276  0.00  0.00    +0.000 A 
ATOM     13  C   UNL     1      30.230   6.277  47.552  0.00  0.00    +0.000 A 
ATOM     14  C   UNL     1      30.143   7.357  46.644  0.00  0.00    +0.000 A 
ATOM     15  C   UNL     1      31.409   7.852  45.993  0.00  0.00    +0.000 C 
ATOM     16  C   UNL     1      28.881   7.944  46.423  0.00  0.00    +0.000 A 
ATOM     17  C   UNL     1      27.768   7.531  47.189  0.00  0.00    +0.000 A 
BRANCH  13  18
ATOM     18  O   UNL     1      31.461   5.680  47.674  0.00  0.00    +0.000 OA
ATOM     19  C   UNL     1      31.975   5.488  48.986  0.00  0.00    +0.000 C 
ENDBRANCH  13  18
BRANCH  16  20
ATOM     20  O   UNL     1      28.586   8.980  45.573  0.00  0.00    +0.000 OA
ATOM     21  C   UNL     1      27.296   9.575  45.652  0.00  0.00    +0.000 C 
ENDBRANCH  16  20
ENDBRANCH   7  11
BRANCH   1  27
ATOM     22  C   UNL     1      24.727   1.326  51.652  0.00  0.00    +0.000 A 
ATOM     23  C   UNL     1      25.567   0.466  52.389  0.00  0.00    +0.000 A 
ATOM     24  C   UNL     1      26.887   0.796  52.694  0.00  0.00    +0.000 A 
ATOM     25  C   UNL     1      27.400   2.009  52.278  0.00  0.00    +0.000 A 
ATOM     26  C   UNL     1      26.591   2.877  51.550  0.00  0.00    +0.000 A 
ATOM     27  C   UNL     1      25.249   2.558  51.189  0.00  0.00    +0.000 A 
BRANCH  22  30
ATOM     28  C   UNL     1      22.439   0.685  52.431  0.00  0.00    +0.000 C 
ATOM     29  O   UNL     1      22.628   0.628  53.641  0.00  0.00    +0.000 OA
ATOM     30  N   UNL     1      23.376   0.958  51.453  0.00  0.00    +0.000 N 
ATOM     31  H   UNL     1      23.072   0.889  50.519  0.00  0.00    +0.000 HD
BRANCH  28  33
ATOM     32  C   UNL     1      20.789   0.727  50.605  0.00  0.00    +0.000 C 
ATOM     33  C   UNL     1      21.095   0.378  51.863  0.00  0.00    +0.000 C 
ENDBRANCH  28  33
ENDBRANCH  22  30
ENDBRANCH   1  27
BRANCH   6  34
ATOM     34  C   UNL     1      26.045   8.350  50.167  0.00  0.00    +0.000 C 
ATOM     35  N   UNL     1      27.128   8.744  50.905  0.00  0.00    +0.000 N 
ATOM     36  O   UNL     1      25.257   9.184  49.733  0.00  0.00    +0.000 OA
ATOM     37  H   UNL     1      27.759   8.073  51.253  0.00  0.00    +0.000 HD
ATOM     38  H   UNL     1      27.277   9.700  51.089  0.00  0.00    +0.000 HD
ENDBRANCH   6  34
TORSDOF 7
ENDMDL
MODEL 4
REMARK VINA RESULT:    -8.230      2.770      5.625
REMARK INTER + INTRA:         -12.892
REMARK INTER:                 -11.772
REMARK INTRA:                  -1.120
REMARK UNBOUND:                -1.294
REMARK  Name = 
REMARK  10 active torsions:
REMARK  status: ('A' for Active; 'I' for Inactive)
REMARK    1  A    between atoms: C_2  and  C_3
REMARK    2  A    between atoms: N_5  and  C_6
REMARK    3  A    between atoms: C_11  and  C_12
REMARK    4  A    between atoms: C_17  and  C_18
REMARK    5  A    between atoms: C_21  and  C_22
REMARK    6  A    between atoms: C_24  and  O_25
REMARK    7  A    between atoms: O_25  and  C_26
REMARK    8  A    between atoms: C_27  and  C_28
REMARK    9  A    between atoms: C_29  and  O_30
REMARK   10  A    between atoms: O_30  and  C_31
REMARK                            x       y       z     vdW  Elec       q    Type
REMARK                         _______ _______ _______ _____ _____    ______ ____
ROOT
ATOM      1  C   UNL     1      21.951   0.238  51.988  0.00  0.00    +0.000 C 
ATOM      2  C   UNL     1      22.449  -0.722  53.102  0.00  0.00    +0.000 C 
ATOM      3  C   UNL     1      21.644  -0.512  54.382  0.00  0.00    +0.000 C 
ATOM      4  N   UNL     1      20.232  -0.713  54.110  0.00  0.00    +0.000 N 
ATOM      5  C   UNL     1      19.699  -0.366  52.913  0.00  0.00    +0.000 A 
ATOM      6  C   UNL     1      18.414  -0.420  52.407  0.00  0.00    +0.000 A 
ATOM      7  C   UNL     1      18.527   0.074  51.056  0.00  0.00    +0.000 A 
ATOM      8  N   UNL     1      19.801   0.436  50.785  0.00  0.00    +0.000 NA
ATOM      9  N   UNL     1      20.490   0.104  51.898  0.00  0.00    +0.000 N 
ATOM     10  H   UNL     1      19.654  -1.107  54.803  0.00  0.00    +0.000 HD
ENDROOT
BRANCH   7  11
ATOM     11  C   UNL     1      17.451   0.315  50.075  0.00  0.00    +0.000 A 
ATOM     12  C   UNL     1      17.217   1.609  49.604  0.00  0.00    +0.000 A 
ATOM     13  C   UNL     1      16.155   1.895  48.740  0.00  0.00    +0.000 A 
ATOM     14  C   UNL     1      15.295   0.865  48.299  0.00  0.00    +0.000 A 
ATOM     15  C   UNL     1      14.083   1.239  47.485  0.00  0.00    +0.000 C 
ATOM     16  C   UNL     1      15.592  -0.461  48.676  0.00  0.00    +0.000 A 
ATOM     17  C   UNL     1      16.653  -0.717  49.573  0.00  0.00    +0.000 A 
BRANCH  13  18
ATOM     18  O   UNL     1      15.879   3.160  48.281  0.00  0.00    +0.000 OA
ATOM     19  C   UNL     1      15.726   4.194  49.245  0.00  0.00    +0.000 C 
ENDBRANCH  13  18
BRANCH  16  20
ATOM     20  O   UNL     1      14.897  -1.595  48.336  0.00  0.00    +0.000 OA
ATOM     21  C   UNL     1      15.540  -2.562  47.514  0.00  0.00    +0.000 C 
ENDBRANCH  16  20
ENDBRANCH   7  11
BRANCH   1  27
ATOM     22  C   UNL     1      23.857   2.099  52.026  0.00  0.00    +0.000 A 
ATOM     23  C   UNL     1      24.134   3.478  52.112  0.00  0.00    +0.000 A 
ATOM     24  C   UNL     1      23.136   4.424  52.348  0.00  0.00    +0.000 A 
ATOM     25  C   UNL     1      21.830   4.010  52.517  0.00  0.00    +0.000 A 
ATOM     26  C   UNL     1      21.530   2.652  52.438  0.00  0.00    +0.000 A 
ATOM     27  C   UNL     1      22.518   1.662  52.163  0.00  0.00    +0.000 A 
BRANCH  22  30
ATOM     28  C   UNL     1      25.737   0.679  52.865  0.00  0.00    +0.000 C 
ATOM     29  O   UNL     1      25.722   0.977  54.054  0.00  0.00    +0.000 OA
ATOM     30  N   UNL     1      24.932   1.194  51.866  0.00  0.00    +0.000 N 
ATOM     31  H   UNL     1      25.128   0.900  50.947  0.00  0.00    +0.000 HD
BRANCH  28  33
ATOM     32  C   UNL     1      26.702  -1.579  52.704  0.00  0.00    +0.000 C 
ATOM     33  C   UNL     1      26.743  -0.289  52.343  0.00  0.00    +0.000 C 
ENDBRANCH  28  33
ENDBRANCH  22  30
ENDBRANCH   1  27
BRANCH   6  34
ATOM     34  C   UNL     1      17.240  -0.879  53.126  0.00  0.00    +0.000 C 
ATOM     35  N   UNL     1      17.407  -2.045  53.823  0.00  0.00    +0.000 N 
ATOM     36  O   UNL     1      16.175  -0.273  53.181  0.00  0.00    +0.000 OA
ATOM     37  H   UNL     1      18.263  -2.529  53.776  0.00  0.00    +0.000 HD
ATOM     38  H   UNL     1      16.670  -2.401  54.371  0.00  0.00    +0.000 HD
ENDBRANCH   6  34
TORSDOF 7
ENDMDL
MODEL 5
REMARK VINA RESULT:    -8.204      1.851      3.366
REMARK INTER + INTRA:         -12.855
REMARK INTER:                 -11.021
REMARK INTRA:                  -1.834
REMARK UNBOUND:                -1.294
REMARK  Name = 
REMARK  10 active torsions:
REMARK  status: ('A' for Active; 'I' for Inactive)
REMARK    1  A    between atoms: C_2  and  C_3
REMARK    2  A    between atoms: N_5  and  C_6
REMARK    3  A    between atoms: C_11  and  C_12
REMARK    4  A    between atoms: C_17  and  C_18
REMARK    5  A    between atoms: C_21  and  C_22
REMARK    6  A    between atoms: C_24  and  O_25
REMARK    7  A    between atoms: O_25  and  C_26
REMARK    8  A    between atoms: C_27  and  C_28
REMARK    9  A    between atoms: C_29  and  O_30
REMARK   10  A    between atoms: O_30  and  C_31
REMARK                            x       y       z     vdW  Elec       q    Type
REMARK                         _______ _______ _______ _____ _____    ______ ____
ROOT
ATOM      1  C   UNL     1      22.108   6.546  51.009  0.00  0.00    +0.000 C 
ATOM      2  C   UNL     1      21.095   7.544  50.388  0.00  0.00    +0.000 C 
ATOM      3  C   UNL     1      20.552   6.998  49.070  0.00  0.00    +0.000 C 
ATOM      4  N   UNL     1      19.937   5.701  49.295  0.00  0.00    +0.000 N 
ATOM      5  C   UNL     1      20.434   4.850  50.225  0.00  0.00    +0.000 A 
ATOM      6  C   UNL     1      20.072   3.575  50.619  0.00  0.00    +0.000 A 
ATOM      7  C   UNL     1      20.990   3.242  51.682  0.00  0.00    +0.000 A 
ATOM      8  N   UNL     1      21.870   4.246  51.885  0.00  0.00    +0.000 NA
ATOM      9  N   UNL     1      21.473   5.219  51.037  0.00  0.00    +0.000 N 
ATOM     10  H   UNL     1      19.150   5.438  48.766  0.00  0.00    +0.000 HD
ENDROOT
BRANCH   7  11
ATOM     11  C   UNL     1      21.119   1.967  52.415  0.00  0.00    +0.000 A 
ATOM     12  C   UNL     1      22.374   1.543  52.855  0.00  0.00    +0.000 A 
ATOM     13  C   UNL     1      22.554   0.304  53.478  0.00  0.00    +0.000 A 
ATOM     14  C   UNL     1      21.452  -0.552  53.700  0.00  0.00    +0.000 A 
ATOM     15  C   UNL     1      21.712  -1.933  54.243  0.00  0.00    +0.000 C 
ATOM     16  C   UNL     1      20.165  -0.084  53.363  0.00  0.00    +0.000 A 
ATOM     17  C   UNL     1      20.016   1.159  52.709  0.00  0.00    +0.000 A 
BRANCH  13  18
ATOM     18  O   UNL     1      23.779  -0.157  53.897  0.00  0.00    +0.000 OA
ATOM     19  C   UNL     1      24.934   0.335  53.229  0.00  0.00    +0.000 C 
ENDBRANCH  13  18
BRANCH  16  20
ATOM     20  O   UNL     1      18.975  -0.749  53.518  0.00  0.00    +0.000 OA
ATOM     21  C   UNL     1      18.035  -0.713  52.451  0.00  0.00    +0.000 C 
ENDBRANCH  16  20
ENDBRANCH   7  11
BRANCH   1  27
ATOM     22  C   UNL     1      24.057   5.813  49.348  0.00  0.00    +0.000 A 
ATOM     23  C   UNL     1      25.303   6.164  48.790  0.00  0.00    +0.000 A 
ATOM     24  C   UNL     1      26.011   7.293  49.202  0.00  0.00    +0.000 A 
ATOM     25  C   UNL     1      25.493   8.098  50.196  0.00  0.00    +0.000 A 
ATOM     26  C   UNL     1      24.263   7.773  50.764  0.00  0.00    +0.000 A 
ATOM     27  C   UNL     1      23.496   6.647  50.344  0.00  0.00    +0.000 A 
BRANCH  22  30
ATOM     28  C   UNL     1      23.820   3.325  49.276  0.00  0.00    +0.000 C 
ATOM     29  O   UNL     1      24.809   2.992  49.919  0.00  0.00    +0.000 OA
ATOM     30  N   UNL     1      23.439   4.609  48.937  0.00  0.00    +0.000 N 
ATOM     31  H   UNL     1      22.654   4.696  48.348  0.00  0.00    +0.000 HD
BRANCH  28  33
ATOM     32  C   UNL     1      22.302   2.491  47.527  0.00  0.00    +0.000 C 
ATOM     33  C   UNL     1      22.910   2.291  48.705  0.00  0.00    +0.000 C 
ENDBRANCH  28  33
ENDBRANCH  22  30
ENDBRANCH   1  27
BRANCH   6  34
ATOM     34  C   UNL     1      18.996   2.787  50.048  0.00  0.00    +0.000 C 
ATOM     35  N   UNL     1      19.393   1.816  49.169  0.00  0.00    +0.000 N 
ATOM     36  O   UNL     1      17.811   2.908  50.341  0.00  0.00    +0.000 OA
ATOM     37  H   UNL     1      20.345   1.721  48.936  0.00  0.00    +0.000 HD
ATOM     38  H   UNL     1      18.727   1.210  48.771  0.00  0.00    +0.000 HD
ENDBRANCH   6  34
TORSDOF 7
ENDMDL
MODEL 6
REMARK VINA RESULT:    -8.174      2.546      6.118
REMARK INTER + INTRA:         -12.814
REMARK INTER:                 -11.002
REMARK INTRA:                  -1.812
REMARK UNBOUND:                -1.294
REMARK  Name = 
REMARK  10 active torsions:
REMARK  status: ('A' for Active; 'I' for Inactive)
REMARK    1  A    between atoms: C_2  and  C_3
REMARK    2  A    between atoms: N_5  and  C_6
REMARK    3  A    between atoms: C_11  and  C_12
REMARK    4  A    between atoms: C_17  and  C_18
REMARK    5  A    between atoms: C_21  and  C_22
REMARK    6  A    between atoms: C_24  and  O_25
REMARK    7  A    between atoms: O_25  and  C_26
REMARK    8  A    between atoms: C_27  and  C_28
REMARK    9  A    between atoms: C_29  and  O_30
REMARK   10  A    between atoms: O_30  and  C_31
REMARK                            x       y       z     vdW  Elec       q    Type
REMARK                         _______ _______ _______ _____ _____    ______ ____
ROOT
ATOM      1  C   UNL     1      22.604   4.736  47.421  0.00  0.00    +0.000 C 
ATOM      2  C   UNL     1      22.631   6.260  47.129  0.00  0.00    +0.000 C 
ATOM      3  C   UNL     1      21.946   7.028  48.255  0.00  0.00    +0.000 C 
ATOM      4  N   UNL     1      22.597   6.727  49.519  0.00  0.00    +0.000 N 
ATOM      5  C   UNL     1      23.112   5.496  49.757  0.00  0.00    +0.000 A 
ATOM      6  C   UNL     1      23.746   4.941  50.852  0.00  0.00    +0.000 A 
ATOM      7  C   UNL     1      24.075   3.596  50.447  0.00  0.00    +0.000 A 
ATOM      8  N   UNL     1      23.632   3.353  49.194  0.00  0.00    +0.000 NA
ATOM      9  N   UNL     1      23.112   4.531  48.786  0.00  0.00    +0.000 N 
ATOM     10  H   UNL     1      22.665   7.424  50.210  0.00  0.00    +0.000 HD
ENDROOT
BRANCH   7  11
ATOM     11  C   UNL     1      24.687   2.520  51.250  0.00  0.00    +0.000 A 
ATOM     12  C   UNL     1      26.062   2.533  51.498  0.00  0.00    +0.000 A 
ATOM     13  C   UNL     1      26.695   1.490  52.182  0.00  0.00    +0.000 A 
ATOM     14  C   UNL     1      25.947   0.394  52.665  0.00  0.00    +0.000 A 
ATOM     15  C   UNL     1      26.687  -0.772  53.269  0.00  0.00    +0.000 C 
ATOM     16  C   UNL     1      24.545   0.427  52.522  0.00  0.00    +0.000 A 
ATOM     17  C   UNL     1      23.935   1.478  51.802  0.00  0.00    +0.000 A 
BRANCH  13  18
ATOM     18  O   UNL     1      28.048   1.457  52.417  0.00  0.00    +0.000 OA
ATOM     19  C   UNL     1      28.555   2.261  53.475  0.00  0.00    +0.000 C 
ENDBRANCH  13  18
BRANCH  16  20
ATOM     20  O   UNL     1      23.647  -0.523  52.940  0.00  0.00    +0.000 OA
ATOM     21  C   UNL     1      22.268  -0.175  52.989  0.00  0.00    +0.000 C 
ENDBRANCH  16  20
ENDBRANCH   7  11
BRANCH   1  27
ATOM     22  C   UNL     1      20.226   3.665  47.962  0.00  0.00    +0.000 A 
ATOM     23  C   UNL     1      18.996   3.233  47.427  0.00  0.00    +0.000 A 
ATOM     24  C   UNL     1      18.749   3.210  46.054  0.00  0.00    +0.000 A 
ATOM     25  C   UNL     1      19.738   3.610  45.176  0.00  0.00    +0.000 A 
ATOM     26  C   UNL     1      20.963   4.039  45.680  0.00  0.00    +0.000 A 
ATOM     27  C   UNL     1      21.238   4.109  47.078  0.00  0.00    +0.000 A 
BRANCH  22  30
ATOM     28  C   UNL     1      19.903   4.417  50.325  0.00  0.00    +0.000 C 
ATOM     29  O   UNL     1      19.236   5.429  50.143  0.00  0.00    +0.000 OA
ATOM     30  N   UNL     1      20.431   3.582  49.359  0.00  0.00    +0.000 N 
ATOM     31  H   UNL     1      21.010   2.851  49.676  0.00  0.00    +0.000 HD
BRANCH  28  33
ATOM     32  C   UNL     1      20.270   2.715  52.064  0.00  0.00    +0.000 C 
ATOM     33  C   UNL     1      20.287   4.007  51.706  0.00  0.00    +0.000 C 
ENDBRANCH  28  33
ENDBRANCH  22  30
ENDBRANCH   1  27
BRANCH   6  34
ATOM     34  C   UNL     1      23.994   5.610  52.115  0.00  0.00    +0.000 C 
ATOM     35  N   UNL     1      24.475   6.887  52.010  0.00  0.00    +0.000 N 
ATOM     36  O   UNL     1      23.755   5.130  53.219  0.00  0.00    +0.000 OA
ATOM     37  H   UNL     1      24.667   7.270  51.123  0.00  0.00    +0.000 HD
ATOM     38  H   UNL     1      24.629   7.424  52.821  0.00  0.00    +0.000 HD
ENDBRANCH   6  34
TORSDOF 7
ENDMDL
MODEL 7
REMARK VINA RESULT:    -8.156      3.087      8.040
REMARK INTER + INTRA:         -12.787
REMARK INTER:                 -12.650
REMARK INTRA:                  -0.138
REMARK UNBOUND:                -1.294
REMARK  Name = 
REMARK  10 active torsions:
REMARK  status: ('A' for Active; 'I' for Inactive)
REMARK    1  A    between atoms: C_2  and  C_3
REMARK    2  A    between atoms: N_5  and  C_6
REMARK    3  A    between atoms: C_11  and  C_12
REMARK    4  A    between atoms: C_17  and  C_18
REMARK    5  A    between atoms: C_21  and  C_22
REMARK    6  A    between atoms: C_24  and  O_25
REMARK    7  A    between atoms: O_25  and  C_26
REMARK    8  A    between atoms: C_27  and  C_28
REMARK    9  A    between atoms: C_29  and  O_30
REMARK   10  A    between atoms: O_30  and  C_31
REMARK                            x       y       z     vdW  Elec       q    Type
REMARK                         _______ _______ _______ _____ _____    ______ ____
ROOT
ATOM      1  C   UNL     1      24.349   1.897  50.926  0.00  0.00    +0.000 C 
ATOM      2  C   UNL     1      22.861   1.773  51.348  0.00  0.00    +0.000 C 
ATOM      3  C   UNL     1      22.520   2.820  52.405  0.00  0.00    +0.000 C 
ATOM      4  N   UNL     1      22.809   4.147  51.890  0.00  0.00    +0.000 N 
ATOM      5  C   UNL     1      23.851   4.352  51.047  0.00  0.00    +0.000 A 
ATOM      6  C   UNL     1      24.357   5.487  50.441  0.00  0.00    +0.000 A 
ATOM      7  C   UNL     1      25.460   5.016  49.639  0.00  0.00    +0.000 A 
ATOM      8  N   UNL     1      25.624   3.683  49.787  0.00  0.00    +0.000 NA
ATOM      9  N   UNL     1      24.606   3.306  50.590  0.00  0.00    +0.000 N 
ATOM     10  H   UNL     1      22.241   4.906  52.155  0.00  0.00    +0.000 HD
ENDROOT
BRANCH   7  11
ATOM     11  C   UNL     1      26.417   5.808  48.842  0.00  0.00    +0.000 A 
ATOM     12  C   UNL     1      25.988   6.969  48.195  0.00  0.00    +0.000 A 
ATOM     13  C   UNL     1      26.839   7.702  47.361  0.00  0.00    +0.000 A 
ATOM     14  C   UNL     1      28.178   7.293  47.168  0.00  0.00    +0.000 A 
ATOM     15  C   UNL     1      29.015   8.029  46.153  0.00  0.00    +0.000 C 
ATOM     16  C   UNL     1      28.652   6.190  47.906  0.00  0.00    +0.000 A 
ATOM     17  C   UNL     1      27.763   5.451  48.718  0.00  0.00    +0.000 A 
BRANCH  13  18
ATOM     18  O   UNL     1      26.442   8.832  46.687  0.00  0.00    +0.000 OA
ATOM     19  C   UNL     1      25.755   9.834  47.425  0.00  0.00    +0.000 C 
ENDBRANCH  13  18
BRANCH  16  20
ATOM     20  O   UNL     1      29.915   5.654  47.876  0.00  0.00    +0.000 OA
ATOM     21  C   UNL     1      30.889   6.167  48.777  0.00  0.00    +0.000 C 
ENDBRANCH  16  20
ENDBRANCH   7  11
BRANCH   1  27
ATOM     22  C   UNL     1      25.044   0.117  52.782  0.00  0.00    +0.000 A 
ATOM     23  C   UNL     1      26.099  -0.399  53.561  0.00  0.00    +0.000 A 
ATOM     24  C   UNL     1      27.374   0.166  53.555  0.00  0.00    +0.000 A 
ATOM     25  C   UNL     1      27.624   1.276  52.773  0.00  0.00    +0.000 A 
ATOM     26  C   UNL     1      26.598   1.807  51.995  0.00  0.00    +0.000 A 
ATOM     27  C   UNL     1      25.293   1.235  51.950  0.00  0.00    +0.000 A 
BRANCH  22  30
ATOM     28  C   UNL     1      23.164  -0.921  54.063  0.00  0.00    +0.000 C 
ATOM     29  O   UNL     1      23.672  -0.996  55.176  0.00  0.00    +0.000 OA
ATOM     30  N   UNL     1      23.758  -0.458  52.904  0.00  0.00    +0.000 N 
ATOM     31  H   UNL     1      23.231  -0.538  52.076  0.00  0.00    +0.000 HD
BRANCH  28  33
ATOM     32  C   UNL     1      20.729  -0.592  53.924  0.00  0.00    +0.000 C 
ATOM     33  C   UNL     1      21.778  -1.421  53.833  0.00  0.00    +0.000 C 
ENDBRANCH  28  33
ENDBRANCH  22  30
ENDBRANCH   1  27
BRANCH   6  34
ATOM     34  C   UNL     1      23.852   6.836  50.615  0.00  0.00    +0.000 C 
ATOM     35  N   UNL     1      24.449   7.553  51.616  0.00  0.00    +0.000 N 
ATOM     36  O   UNL     1      22.996   7.357  49.907  0.00  0.00    +0.000 OA
ATOM     37  H   UNL     1      25.135   7.132  52.182  0.00  0.00    +0.000 HD
ATOM     38  H   UNL     1      24.192   8.492  51.770  0.00  0.00    +0.000 HD
ENDBRANCH   6  34
TORSDOF 7
ENDMDL
MODEL 8
REMARK VINA RESULT:    -8.102      1.972      3.116
REMARK INTER + INTRA:         -12.712
REMARK INTER:                 -10.817
REMARK INTRA:                  -1.895
REMARK UNBOUND:                -1.294
REMARK  Name = 
REMARK  10 active torsions:
REMARK  status: ('A' for Active; 'I' for Inactive)
REMARK    1  A    between atoms: C_2  and  C_3
REMARK    2  A    between atoms: N_5  and  C_6
REMARK    3  A    between atoms: C_11  and  C_12
REMARK    4  A    between atoms: C_17  and  C_18
REMARK    5  A    between atoms: C_21  and  C_22
REMARK    6  A    between atoms: C_24  and  O_25
REMARK    7  A    between atoms: O_25  and  C_26
REMARK    8  A    between atoms: C_27  and  C_28
REMARK    9  A    between atoms: C_29  and  O_30
REMARK   10  A    between atoms: O_30  and  C_31
REMARK                            x       y       z     vdW  Elec       q    Type
REMARK                         _______ _______ _______ _____ _____    ______ ____
ROOT
ATOM      1  C   UNL     1      22.217   6.778  50.976  0.00  0.00    +0.000 C 
ATOM      2  C   UNL     1      21.111   7.761  50.506  0.00  0.00    +0.000 C 
ATOM      3  C   UNL     1      20.439   7.236  49.240  0.00  0.00    +0.000 C 
ATOM      4  N   UNL     1      19.892   5.914  49.488  0.00  0.00    +0.000 N 
ATOM      5  C   UNL     1      20.517   5.052  50.328  0.00  0.00    +0.000 A 
ATOM      6  C   UNL     1      20.239   3.755  50.717  0.00  0.00    +0.000 A 
ATOM      7  C   UNL     1      21.281   3.420  51.658  0.00  0.00    +0.000 A 
ATOM      8  N   UNL     1      22.148   4.447  51.795  0.00  0.00    +0.000 NA
ATOM      9  N   UNL     1      21.629   5.431  51.030  0.00  0.00    +0.000 N 
ATOM     10  H   UNL     1      19.058   5.640  49.043  0.00  0.00    +0.000 HD
ENDROOT
BRANCH   7  11
ATOM     11  C   UNL     1      21.530   2.129  52.328  0.00  0.00    +0.000 A 
ATOM     12  C   UNL     1      20.453   1.348  52.755  0.00  0.00    +0.000 A 
ATOM     13  C   UNL     1      20.644   0.161  53.469  0.00  0.00    +0.000 A 
ATOM     14  C   UNL     1      21.948  -0.296  53.761  0.00  0.00    +0.000 A 
ATOM     15  C   UNL     1      22.106  -1.501  54.652  0.00  0.00    +0.000 C 
ATOM     16  C   UNL     1      23.042   0.424  53.236  0.00  0.00    +0.000 A 
ATOM     17  C   UNL     1      22.820   1.635  52.543  0.00  0.00    +0.000 A 
BRANCH  13  18
ATOM     18  O   UNL     1      19.608  -0.615  53.928  0.00  0.00    +0.000 OA
ATOM     19  C   UNL     1      18.513  -0.842  53.050  0.00  0.00    +0.000 C 
ENDBRANCH  13  18
BRANCH  16  20
ATOM     20  O   UNL     1      24.374   0.134  53.387  0.00  0.00    +0.000 OA
ATOM     21  C   UNL     1      25.301   1.212  53.432  0.00  0.00    +0.000 C 
ENDBRANCH  16  20
ENDBRANCH   7  11
BRANCH   1  27
ATOM     22  C   UNL     1      24.008   6.136  49.111  0.00  0.00    +0.000 A 
ATOM     23  C   UNL     1      25.166   6.545  48.421  0.00  0.00    +0.000 A 
ATOM     24  C   UNL     1      25.857   7.711  48.752  0.00  0.00    +0.000 A 
ATOM     25  C   UNL     1      25.409   8.495  49.797  0.00  0.00    +0.000 A 
ATOM     26  C   UNL     1      24.267   8.112  50.496  0.00  0.00    +0.000 A 
ATOM     27  C   UNL     1      23.517   6.946  50.162  0.00  0.00    +0.000 A 
BRANCH  22  30
ATOM     28  C   UNL     1      23.905   3.638  49.043  0.00  0.00    +0.000 C 
ATOM     29  O   UNL     1      24.987   3.360  49.548  0.00  0.00    +0.000 OA
ATOM     30  N   UNL     1      23.411   4.899  48.771  0.00  0.00    +0.000 N 
ATOM     31  H   UNL     1      22.552   4.943  48.290  0.00  0.00    +0.000 HD
BRANCH  28  33
ATOM     32  C   UNL     1      22.134   2.767  47.573  0.00  0.00    +0.000 C 
ATOM     33  C   UNL     1      22.988   2.555  48.584  0.00  0.00    +0.000 C 
ENDBRANCH  28  33
ENDBRANCH  22  30
ENDBRANCH   1  27
BRANCH   6  34
ATOM     34  C   UNL     1      19.130   2.948  50.244  0.00  0.00    +0.000 C 
ATOM     35  N   UNL     1      17.918   3.243  50.807  0.00  0.00    +0.000 N 
ATOM     36  O   UNL     1      19.212   2.094  49.366  0.00  0.00    +0.000 OA
ATOM     37  H   UNL     1      17.855   3.929  51.511  0.00  0.00    +0.000 HD
ATOM     38  H   UNL     1      17.108   2.769  50.508  0.00  0.00    +0.000 HD
ENDBRANCH   6  34
TORSDOF 7
ENDMDL
MODEL 9
REMARK VINA RESULT:    -7.942      1.211      2.441
REMARK INTER + INTRA:         -12.486
REMARK INTER:                 -11.138
REMARK INTRA:                  -1.348
REMARK UNBOUND:                -1.294
REMARK  Name = 
REMARK  10 active torsions:
REMARK  status: ('A' for Active; 'I' for Inactive)
REMARK    1  A    between atoms: C_2  and  C_3
REMARK    2  A    between atoms: N_5  and  C_6
REMARK    3  A    between atoms: C_11  and  C_12
REMARK    4  A    between atoms: C_17  and  C_18
REMARK    5  A    between atoms: C_21  and  C_22
REMARK    6  A    between atoms: C_24  and  O_25
REMARK    7  A    between atoms: O_25  and  C_26
REMARK    8  A    between atoms: C_27  and  C_28
REMARK    9  A    between atoms: C_29  and  O_30
REMARK   10  A    between atoms: O_30  and  C_31
REMARK                            x       y       z     vdW  Elec       q    Type
REMARK                         _______ _______ _______ _____ _____    ______ ____
ROOT
ATOM      1  C   UNL     1      23.535   5.838  51.001  0.00  0.00    +0.000 C 
ATOM      2  C   UNL     1      23.336   7.310  50.551  0.00  0.00    +0.000 C 
ATOM      3  C   UNL     1      22.746   7.360  49.144  0.00  0.00    +0.000 C 
ATOM      4  N   UNL     1      21.491   6.630  49.114  0.00  0.00    +0.000 N 
ATOM      5  C   UNL     1      21.310   5.529  49.884  0.00  0.00    +0.000 A 
ATOM      6  C   UNL     1      20.254   4.650  50.030  0.00  0.00    +0.000 A 
ATOM      7  C   UNL     1      20.691   3.710  51.034  0.00  0.00    +0.000 A 
ATOM      8  N   UNL     1      21.949   3.992  51.436  0.00  0.00    +0.000 NA
ATOM      9  N   UNL     1      22.270   5.123  50.772  0.00  0.00    +0.000 N 
ATOM     10  H   UNL     1      20.762   6.939  48.529  0.00  0.00    +0.000 HD
ENDROOT
BRANCH   7  11
ATOM     11  C   UNL     1      19.996   2.504  51.524  0.00  0.00    +0.000 A 
ATOM     12  C   UNL     1      20.697   1.552  52.268  0.00  0.00    +0.000 A 
ATOM     13  C   UNL     1      20.100   0.356  52.679  0.00  0.00    +0.000 A 
ATOM     14  C   UNL     1      18.749   0.087  52.368  0.00  0.00    +0.000 A 
ATOM     15  C   UNL     1      18.189  -1.271  52.706  0.00  0.00    +0.000 C 
ATOM     16  C   UNL     1      18.001   1.090  51.718  0.00  0.00    +0.000 A 
ATOM     17  C   UNL     1      18.637   2.276  51.288  0.00  0.00    +0.000 A 
BRANCH  13  18
ATOM     18  O   UNL     1      20.769  -0.614  53.387  0.00  0.00    +0.000 OA
ATOM     19  C   UNL     1      21.181  -0.300  54.711  0.00  0.00    +0.000 C 
ENDBRANCH  13  18
BRANCH  16  20
ATOM     20  O   UNL     1      16.680   1.031  51.350  0.00  0.00    +0.000 OA
ATOM     21  C   UNL     1      15.837   2.130  51.677  0.00  0.00    +0.000 C 
ENDBRANCH  16  20
ENDBRANCH   7  11
BRANCH   1  27
ATOM     22  C   UNL     1      25.262   3.880  50.471  0.00  0.00    +0.000 A 
ATOM     23  C   UNL     1      26.404   3.504  49.736  0.00  0.00    +0.000 A 
ATOM     24  C   UNL     1      27.117   4.412  48.953  0.00  0.00    +0.000 A 
ATOM     25  C   UNL     1      26.709   5.730  48.895  0.00  0.00    +0.000 A 
ATOM     26  C   UNL     1      25.584   6.128  49.613  0.00  0.00    +0.000 A 
ATOM     27  C   UNL     1      24.811   5.220  50.396  0.00  0.00    +0.000 A 
BRANCH  22  30
ATOM     28  C   UNL     1      25.050   2.536  52.569  0.00  0.00    +0.000 C 
ATOM     29  O   UNL     1      26.067   2.884  53.156  0.00  0.00    +0.000 OA
ATOM     30  N   UNL     1      24.641   2.923  51.307  0.00  0.00    +0.000 N 
ATOM     31  H   UNL     1      23.832   2.487  50.952  0.00  0.00    +0.000 HD
BRANCH  28  33
ATOM     32  C   UNL     1      24.389   0.226  53.103  0.00  0.00    +0.000 C 
ATOM     33  C   UNL     1      24.129   1.538  53.185  0.00  0.00    +0.000 C 
ENDBRANCH  28  33
ENDBRANCH  22  30
ENDBRANCH   1  27
BRANCH   6  34
ATOM     34  C   UNL     1      19.000   4.705  49.301  0.00  0.00    +0.000 C 
ATOM     35  N   UNL     1      18.045   5.516  49.851  0.00  0.00    +0.000 N 
ATOM     36  O   UNL     1      18.785   4.130  48.238  0.00  0.00    +0.000 OA
ATOM     37  H   UNL     1      18.220   5.975  50.705  0.00  0.00    +0.000 HD
ATOM     38  H   UNL     1      17.182   5.640  49.394  0.00  0.00    +0.000 HD
ENDBRANCH   6  34
TORSDOF 7
ENDMDL
