REMARK  Name = 
REMARK  13 active torsions:
REMARK  status: ('A' for Active; 'I' for Inactive)
REMARK    1  A    between atoms: C_2  and  C_3
REMARK    2  A    between atoms: N_5  and  C_6
REMARK    3  A    between atoms: C_10  and  N_11
REMARK    4  A    between atoms: N_14  and  C_15
REMARK    5  A    between atoms: C_15  and  C_16
REMARK    6  A    between atoms: C_16  and  C_17
REMARK    7  A    between atoms: N_24  and  C_25
REMARK    8  A    between atoms: C_28  and  N_29
REMARK    9  A    between atoms: C_32  and  N_33
REMARK   10  A    between atoms: N_33  and  C_34
REMARK   11  A    between atoms: N_33  and  C_35
REMARK   12  A    between atoms: C_39  and  O_40
REMARK   13  A    between atoms: O_40  and  C_41
REMARK                            x       y       z     vdW  Elec       q    Type
REMARK                         _______ _______ _______ _____ _____    ______ ____
ROOT
ATOM      1  N   UNL     1      -1.766  -3.940  -3.090  0.00  0.00    +0.000 N 
ATOM      2  C   UNL     1      -2.321  -5.193  -2.829  0.00  0.00    +0.000 A 
ATOM      3  O   UNL     1      -2.290  -5.726  -1.716  0.00  0.00    +0.000 OA
ATOM      4  N   UNL     1      -2.896  -5.854  -3.915  0.00  0.00    +0.000 N 
ATOM      5  C   UNL     1      -2.958  -5.347  -5.202  0.00  0.00    +0.000 A 
ATOM      6  O   UNL     1      -3.387  -5.954  -6.178  0.00  0.00    +0.000 OA
ATOM      7  C   UNL     1      -2.489  -3.987  -5.381  0.00  0.00    +0.000 A 
ATOM      8  C   UNL     1      -2.670  -3.311  -6.567  0.00  0.00    +0.000 A 
ATOM      9  N   UNL     1      -2.261  -2.043  -6.762  0.00  0.00    +0.000 NA
ATOM     10  C   UNL     1      -1.632  -1.455  -5.739  0.00  0.00    +0.000 A 
ATOM     11  N   UNL     1      -1.168  -0.159  -5.946  0.00  0.00    +0.000 N 
ATOM     12  N   UNL     1      -1.441  -2.050  -4.546  0.00  0.00    +0.000 NA
ATOM     13  C   UNL     1      -1.874  -3.314  -4.362  0.00  0.00    +0.000 A 
ATOM     14  H   UNL     1      -1.713   0.420  -6.527  0.00  0.00    +0.000 HD
ENDROOT
BRANCH   1  19
ATOM     15  C   UNL     1      -1.112  -2.408   0.272  0.00  0.00    +0.000 A 
ATOM     16  C   UNL     1       0.231  -2.060   0.129  0.00  0.00    +0.000 A 
ATOM     17  C   UNL     1       0.891  -2.255  -1.087  0.00  0.00    +0.000 A 
ATOM     18  C   UNL     1       0.217  -2.814  -2.172  0.00  0.00    +0.000 A 
ATOM     19  C   UNL     1      -1.112  -3.231  -2.035  0.00  0.00    +0.000 A 
ATOM     20  C   UNL     1      -1.762  -3.034  -0.802  0.00  0.00    +0.000 A 
BRANCH  15  23
ATOM     21  C   UNL     1      -1.480  -1.365   2.507  0.00  0.00    +0.000 C 
ATOM     22  O   UNL     1      -0.439  -0.731   2.615  0.00  0.00    +0.000 OA
ATOM     23  N   UNL     1      -1.862  -2.167   1.445  0.00  0.00    +0.000 N 
ATOM     24  H   UNL     1      -2.738  -2.611   1.514  0.00  0.00    +0.000 HD
BRANCH  21  26
ATOM     25  C   UNL     1      -2.385  -0.446   4.595  0.00  0.00    +0.000 C 
ATOM     26  C   UNL     1      -2.523  -1.299   3.570  0.00  0.00    +0.000 C 
ENDBRANCH  21  26
ENDBRANCH  15  23
ENDBRANCH   1  19
BRANCH  11  27
ATOM     27  C   UNL     1       0.001   0.407  -5.408  0.00  0.00    +0.000 A 
ATOM     28  C   UNL     1       1.086  -0.416  -5.079  0.00  0.00    +0.000 A 
ATOM     29  C   UNL     1       2.267   0.101  -4.543  0.00  0.00    +0.000 A 
ATOM     30  C   UNL     1       2.438   1.468  -4.325  0.00  0.00    +0.000 A 
ATOM     31  C   UNL     1       1.370   2.293  -4.713  0.00  0.00    +0.000 A 
ATOM     32  C   UNL     1       0.163   1.788  -5.242  0.00  0.00    +0.000 A 
BRANCH  30  33
ATOM     33  N   UNL     1       3.593   1.960  -3.751  0.00  0.00    +0.000 N 
ATOM     34  C   UNL     1       3.610   3.172  -2.936  0.00  0.00    +0.000 C 
ATOM     35  C   UNL     1       4.460   4.228  -3.633  0.00  0.00    +0.000 C 
ATOM     36  C   UNL     1       5.873   3.701  -3.975  0.00  0.00    +0.000 C 
ATOM     37  C   UNL     1       5.810   2.333  -4.688  0.00  0.00    +0.000 C 
ATOM     38  C   UNL     1       4.899   1.344  -3.961  0.00  0.00    +0.000 C 
BRANCH  36  39
ATOM     39  N   UNL     1       6.693   4.729  -4.672  0.00  0.00    +0.000 N 
ATOM     40  C   UNL     1       8.050   4.266  -4.969  0.00  0.00    +0.000 C 
ATOM     41  C   UNL     1       6.080   5.271  -5.886  0.00  0.00    +0.000 C 
ATOM     42  H   UNL     1       6.744   5.492  -3.997  0.00  0.00    +0.000 HD
ENDBRANCH  36  39
ENDBRANCH  30  33
BRANCH  32  43
ATOM     43  O   UNL     1      -0.740   2.765  -5.584  0.00  0.00    +0.000 OA
ATOM     44  C   UNL     1      -2.118   2.460  -5.404  0.00  0.00    +0.000 C 
ENDBRANCH  32  43
ENDBRANCH  11  27
BRANCH   4  45
ATOM     45  C   UNL     1      -3.473  -7.175  -3.677  0.00  0.00    +0.000 C 
BRANCH  45  46
ATOM     46  C   UNL     1      -4.901  -7.102  -3.122  0.00  0.00    +0.000 C 
ATOM     47  C   UNL     1      -5.883  -6.417  -4.062  0.00  0.00    +0.000 C 
ENDBRANCH  45  46
ENDBRANCH   4  45
TORSDOF 9
