REMARK  Name = 
REMARK  12 active torsions:
REMARK  status: ('A' for Active; 'I' for Inactive)
REMARK    1  A    between atoms: C_1  and  C_2
REMARK    2  A    between atoms: C_2  and  N_3
REMARK    3  A    between atoms: N_3  and  C_4
REMARK    4  A    between atoms: N_3  and  C_6
REMARK    5  A    between atoms: C_4  and  C_5
REMARK    6  A    between atoms: C_6  and  C_7
REMARK    7  A    between atoms: C_7  and  N_8
REMARK    8  A    between atoms: C_13  and  N_14
REMARK    9  A    between atoms: C_19  and  C_20
REMARK   10  A    between atoms: N_22  and  S_23
REMARK   11  A    between atoms: S_23  and  C_26
REMARK   12  A    between atoms: C_26  and  C_27
REMARK                            x       y       z     vdW  Elec       q    Type
REMARK                         _______ _______ _______ _____ _____    ______ ____
ROOT
ATOM      1  N   UNL     1      -0.572  -0.258   6.571  0.00  0.00    +0.000 N 
ATOM      2  C   UNL     1      -1.223  -1.495   6.713  0.00  0.00    +0.000 A 
ATOM      3  N   UNL     1      -0.703  -2.605   6.166  0.00  0.00    +0.000 NA
ATOM      4  C   UNL     1      -1.402  -3.745   6.240  0.00  0.00    +0.000 A 
ATOM      5  C   UNL     1      -2.618  -3.830   6.851  0.00  0.00    +0.000 A 
ATOM      6  C   UNL     1      -3.089  -2.653   7.395  0.00  0.00    +0.000 A 
ATOM      7  N   UNL     1      -2.399  -1.488   7.359  0.00  0.00    +0.000 NA
ATOM      8  H   UNL     1      -0.757   0.402   7.278  0.00  0.00    +0.000 HD
ENDROOT
BRANCH   1  14
ATOM      9  N   UNL     1       2.724   1.181   2.315  0.00  0.00    +0.000 N 
ATOM     10  N   UNL     1       3.152  -0.017   1.852  0.00  0.00    +0.000 NA
ATOM     11  C   UNL     1       2.600  -0.894   2.689  0.00  0.00    +0.000 A 
ATOM     12  C   UNL     1       1.820  -0.274   3.684  0.00  0.00    +0.000 A 
ATOM     13  C   UNL     1       1.031  -0.727   4.755  0.00  0.00    +0.000 A 
ATOM     14  C   UNL     1       0.311   0.170   5.555  0.00  0.00    +0.000 A 
ATOM     15  C   UNL     1       0.515   1.543   5.335  0.00  0.00    +0.000 A 
ATOM     16  C   UNL     1       1.320   2.033   4.282  0.00  0.00    +0.000 A 
ATOM     17  C   UNL     1       1.941   1.092   3.446  0.00  0.00    +0.000 A 
BRANCH   9  18
ATOM     18  C   UNL     1       3.102   2.371   1.566  0.00  0.00    +0.000 C 
BRANCH  18  19
ATOM     19  C   UNL     1       2.127   2.642   0.406  0.00  0.00    +0.000 C 
BRANCH  19  20
ATOM     20  N   UNL     1       2.420   3.874  -0.366  0.00  0.00    +0.000 N 
ATOM     21  H   UNL     1       2.600   4.619   0.307  0.00  0.00    +0.000 HD
BRANCH  20  23
ATOM     22  C   UNL     1       4.084   5.083  -1.791  0.00  0.00    +0.000 C 
ATOM     23  C   UNL     1       3.657   3.759  -1.159  0.00  0.00    +0.000 C 
ENDBRANCH  20  23
BRANCH  20  24
ATOM     24  C   UNL     1       1.254   4.302  -1.164  0.00  0.00    +0.000 C 
ATOM     25  C   UNL     1       0.876   3.438  -2.366  0.00  0.00    +0.000 C 
ENDBRANCH  20  24
ENDBRANCH  19  20
ENDBRANCH  18  19
ENDBRANCH   9  18
ENDBRANCH   1  14
BRANCH   6  26
ATOM     26  C   UNL     1      -4.432  -2.594   7.963  0.00  0.00    +0.000 A 
ATOM     27  C   UNL     1      -5.490  -3.328   7.455  0.00  0.00    +0.000 A 
ATOM     28  N   UNL     1      -6.606  -3.009   8.177  0.00  0.00    +0.000 N 
ATOM     29  C   UNL     1      -6.330  -2.072   9.147  0.00  0.00    +0.000 A 
ATOM     30  C   UNL     1      -7.137  -1.438  10.110  0.00  0.00    +0.000 A 
ATOM     31  C   UNL     1      -6.537  -0.518  10.974  0.00  0.00    +0.000 A 
ATOM     32  C   UNL     1      -5.178  -0.240  10.891  0.00  0.00    +0.000 A 
ATOM     33  C   UNL     1      -4.381  -0.871   9.931  0.00  0.00    +0.000 A 
ATOM     34  C   UNL     1      -4.956  -1.799   9.036  0.00  0.00    +0.000 A 
BRANCH  28  35
ATOM     35  S   UNL     1      -8.166  -3.575   7.779  0.00  0.00    +0.000 S 
ATOM     36  O   UNL     1      -7.960  -4.544   6.716  0.00  0.00    +0.000 OA
ATOM     37  O   UNL     1      -8.751  -3.967   9.046  0.00  0.00    +0.000 OA
BRANCH  35  38
ATOM     38  C   UNL     1      -9.083  -2.198   7.119  0.00  0.00    +0.000 C 
ATOM     39  C   UNL     1     -10.500  -2.602   6.757  0.00  0.00    +0.000 C 
ENDBRANCH  35  38
ENDBRANCH  28  35
ENDBRANCH   6  26
TORSDOF 9
