REMARK  Name = 
REMARK  15 active torsions:
REMARK  status: ('A' for Active; 'I' for Inactive)
REMARK    1  A    between atoms: C_2  and  C_3
REMARK    2  A    between atoms: N_5  and  C_6
REMARK    3  A    between atoms: C_8  and  S_9
REMARK    4  A    between atoms: S_9  and  C_10
REMARK    5  A    between atoms: C_10  and  C_11
REMARK    6  A    between atoms: N_17  and  C_18
REMARK    7  A    between atoms: C_28  and  O_29
REMARK    8  A    between atoms: O_29  and  C_30
REMARK    9  A    between atoms: C_32  and  N_33
REMARK   10  A    between atoms: N_33  and  C_34
REMARK   11  A    between atoms: N_33  and  C_35
REMARK   12  A    between atoms: C_35  and  C_36
REMARK   13  A    between atoms: C_36  and  N_37
REMARK   14  A    between atoms: N_37  and  C_38
REMARK   15  A    between atoms: N_37  and  C_39
REMARK                            x       y       z     vdW  Elec       q    Type
REMARK                         _______ _______ _______ _____ _____    ______ ____
ROOT
ATOM      1  C   UNL     1      -1.229   0.554   1.282  0.00  0.00    +0.000 A 
ATOM      2  C   UNL     1      -0.211   1.535   1.225  0.00  0.00    +0.000 A 
ATOM      3  C   UNL     1       0.457   1.984   2.370  0.00  0.00    +0.000 A 
ATOM      4  C   UNL     1       0.021   1.473   3.603  0.00  0.00    +0.000 A 
ATOM      5  C   UNL     1      -1.016   0.518   3.648  0.00  0.00    +0.000 A 
ATOM      6  C   UNL     1      -1.651  -0.012   2.508  0.00  0.00    +0.000 A 
ENDROOT
BRANCH   1   9
ATOM      7  C   UNL     1      -2.188   0.744  -1.043  0.00  0.00    +0.000 C 
ATOM      8  O   UNL     1      -2.447   0.094  -2.059  0.00  0.00    +0.000 OA
ATOM      9  N   UNL     1      -1.775   0.096   0.071  0.00  0.00    +0.000 N 
ATOM     10  H   UNL     1      -1.875  -0.882   0.024  0.00  0.00    +0.000 HD
BRANCH   7  12
ATOM     11  C   UNL     1      -2.406   2.909  -2.111  0.00  0.00    +0.000 C 
ATOM     12  C   UNL     1      -2.440   2.197  -0.976  0.00  0.00    +0.000 C 
ENDBRANCH   7  12
ENDBRANCH   1   9
BRANCH   4  13
ATOM     13  O   UNL     1       0.418   1.885   4.854  0.00  0.00    +0.000 OA
ATOM     14  C   UNL     1       1.817   1.960   5.118  0.00  0.00    +0.000 C 
ENDBRANCH   4  13
BRANCH   6  15
ATOM     15  N   UNL     1      -2.666  -0.960   2.631  0.00  0.00    +0.000 N 
ATOM     16  C   UNL     1      -2.777  -2.090   1.719  0.00  0.00    +0.000 C 
BRANCH  15  17
ATOM     17  C   UNL     1      -3.500  -1.074   3.847  0.00  0.00    +0.000 C 
BRANCH  17  18
ATOM     18  C   UNL     1      -4.519   0.080   4.021  0.00  0.00    +0.000 C 
BRANCH  18  19
ATOM     19  N   UNL     1      -5.573  -0.306   4.986  0.00  0.00    +0.000 N 
ATOM     20  C   UNL     1      -5.109  -0.260   6.373  0.00  0.00    +0.000 C 
ATOM     21  C   UNL     1      -6.785   0.498   4.838  0.00  0.00    +0.000 C 
ATOM     22  H   UNL     1      -5.803  -1.275   4.762  0.00  0.00    +0.000 HD
ENDBRANCH  18  19
ENDBRANCH  17  18
ENDBRANCH  15  17
ENDBRANCH   6  15
BRANCH   3  23
ATOM     23  S   UNL     1       1.721   3.247   2.215  0.00  0.00    +0.000 S 
BRANCH  23  24
ATOM     24  C   UNL     1       2.584   2.816   0.638  0.00  0.00    +0.000 C 
BRANCH  24  25
ATOM     25  C   UNL     1       3.906   3.553   0.533  0.00  0.00    +0.000 A 
ATOM     26  N   UNL     1       5.038   2.819   0.684  0.00  0.00    +0.000 NA
ATOM     27  C   UNL     1       6.225   3.467   0.791  0.00  0.00    +0.000 A 
ATOM     28  C   UNL     1       6.249   4.856   0.785  0.00  0.00    +0.000 A 
ATOM     29  N   UNL     1       7.258   5.752   1.004  0.00  0.00    +0.000 NA
ATOM     30  C   UNL     1       6.666   6.926   0.975  0.00  0.00    +0.000 A 
ATOM     31  N   UNL     1       5.318   6.855   0.665  0.00  0.00    +0.000 N 
ATOM     32  C   UNL     1       5.039   5.498   0.561  0.00  0.00    +0.000 A 
ATOM     33  N   UNL     1       3.844   4.897   0.397  0.00  0.00    +0.000 NA
BRANCH  31  34
ATOM     34  C   UNL     1       4.408   7.953   0.574  0.00  0.00    +0.000 A 
ATOM     35  C   UNL     1       3.144   7.799  -0.020  0.00  0.00    +0.000 A 
ATOM     36  C   UNL     1       2.235   8.862  -0.036  0.00  0.00    +0.000 A 
ATOM     37  C   UNL     1       2.560  10.061   0.585  0.00  0.00    +0.000 A 
ATOM     38  F   UNL     1       1.651  11.046   0.606  0.00  0.00    +0.000 F 
ATOM     39  C   UNL     1       3.800  10.220   1.193  0.00  0.00    +0.000 A 
ATOM     40 BR   UNL     1       4.184  11.776   2.199  0.00  0.00    +0.000 Br
ATOM     41  C   UNL     1       4.747   9.192   1.143  0.00  0.00    +0.000 A 
ENDBRANCH  31  34
ENDBRANCH  24  25
ENDBRANCH  23  24
ENDBRANCH   3  23
TORSDOF 11
