REMARK  Name = 
REMARK  7 active torsions:
REMARK  status: ('A' for Active; 'I' for Inactive)
REMARK    1  A    between atoms: C_2  and  C_3
REMARK    2  A    between atoms: N_5  and  C_6
REMARK    3  A    between atoms: C_9  and  N_10
REMARK    4  A    between atoms: N_10  and  C_11
REMARK    5  A    between atoms: C_24  and  O_25
REMARK    6  A    between atoms: O_25  and  C_26
REMARK    7  A    between atoms: C_26  and  C_27
REMARK                            x       y       z     vdW  Elec       q    Type
REMARK                         _______ _______ _______ _____ _____    ______ ____
ROOT
ATOM      1  C   UNL     1      -1.767   1.595   0.862  0.00  0.00    +0.000 A 
ATOM      2  C   UNL     1      -2.121   1.796   2.202  0.00  0.00    +0.000 A 
ATOM      3  C   UNL     1      -1.253   2.510   3.034  0.00  0.00    +0.000 A 
ATOM      4  C   UNL     1      -1.362   2.496   4.440  0.00  0.00    +0.000 A 
ATOM      5  N   UNL     1      -0.484   3.152   5.210  0.00  0.00    +0.000 NA
ATOM      6  C   UNL     1       0.509   3.784   4.573  0.00  0.00    +0.000 A 
ATOM      7  N   UNL     1       0.713   3.838   3.244  0.00  0.00    +0.000 NA
ATOM      8  C   UNL     1      -0.159   3.192   2.461  0.00  0.00    +0.000 A 
ATOM      9  C   UNL     1       0.041   3.143   1.059  0.00  0.00    +0.000 A 
ATOM     10  C   UNL     1      -0.760   2.349   0.240  0.00  0.00    +0.000 A 
ENDROOT
BRANCH   1  13
ATOM     11  C   UNL     1      -1.420  -0.774   0.997  0.00  0.00    +0.000 C 
ATOM     12  O   UNL     1      -1.979  -1.858   1.112  0.00  0.00    +0.000 OA
ATOM     13  N   UNL     1      -2.038   0.299   0.356  0.00  0.00    +0.000 N 
ATOM     14  H   UNL     1      -2.637   0.163  -0.413  0.00  0.00    +0.000 HD
BRANCH  11  16
ATOM     15  C   UNL     1       0.159  -0.725   2.905  0.00  0.00    +0.000 C 
ATOM     16  C   UNL     1      -0.081  -0.505   1.605  0.00  0.00    +0.000 C 
ENDBRANCH  11  16
ENDBRANCH   1  13
BRANCH   4  17
ATOM     17  N   UNL     1      -2.345   1.674   5.070  0.00  0.00    +0.000 N 
ATOM     18  H   UNL     1      -2.701   0.927   4.537  0.00  0.00    +0.000 HD
BRANCH  17  19
ATOM     19  C   UNL     1      -2.862   1.820   6.382  0.00  0.00    +0.000 A 
ATOM     20  C   UNL     1      -3.094   3.085   6.932  0.00  0.00    +0.000 A 
ATOM     21  C   UNL     1      -3.707   3.230   8.181  0.00  0.00    +0.000 A 
ATOM     22  C   UNL     1      -4.106   2.101   8.897  0.00  0.00    +0.000 A 
ATOM     23 BR   UNL     1      -4.952   2.311  10.574  0.00  0.00    +0.000 Br
ATOM     24  C   UNL     1      -3.896   0.831   8.371  0.00  0.00    +0.000 A 
ATOM     25  C   UNL     1      -3.292   0.703   7.122  0.00  0.00    +0.000 A 
ATOM     26  F   UNL     1      -3.112  -0.529   6.619  0.00  0.00    +0.000 F 
ENDBRANCH  17  19
ENDBRANCH   4  17
BRANCH  10  27
ATOM     27  O   UNL     1      -0.711   2.180  -1.114  0.00  0.00    +0.000 OA
BRANCH  27  28
ATOM     28  C   UNL     1       0.431   2.461  -1.920  0.00  0.00    +0.000 C 
BRANCH  28  29
ATOM     29  C   UNL     1       0.312   3.815  -2.520  0.00  0.00    +0.000 A 
ATOM     30  C   UNL     1      -0.360   4.325  -3.618  0.00  0.00    +0.000 A 
ATOM     31  C   UNL     1      -0.025   5.701  -3.689  0.00  0.00    +0.000 A 
ATOM     32  C   UNL     1       0.850   5.934  -2.655  0.00  0.00    +0.000 A 
ATOM     33  O   UNL     1       1.065   4.797  -1.945  0.00  0.00    +0.000 OA
ENDBRANCH  28  29
ENDBRANCH  27  28
ENDBRANCH  10  27
TORSDOF 7
