REMARK  Name = 
REMARK  10 active torsions:
REMARK  status: ('A' for Active; 'I' for Inactive)
REMARK    1  A    between atoms: C_1  and  C_2
REMARK    2  A    between atoms: C_2  and  S_3
REMARK    3  A    between atoms: S_3  and  N_6
REMARK    4  A    between atoms: C_8  and  C_9
REMARK    5  A    between atoms: N_12  and  C_13
REMARK    6  A    between atoms: C_16  and  N_17
REMARK    7  A    between atoms: C_20  and  N_21
REMARK    8  A    between atoms: N_24  and  C_25
REMARK    9  A    between atoms: C_32  and  O_33
REMARK   10  A    between atoms: O_33  and  C_34
REMARK                            x       y       z     vdW  Elec       q    Type
REMARK                         _______ _______ _______ _____ _____    ______ ____
ROOT
ATOM      1  C   UNL     1       8.744   3.324  -6.182  0.00  0.00    +0.000 A 
ATOM      2  C   UNL     1       9.778   4.238  -6.445  0.00  0.00    +0.000 A 
ATOM      3  C   UNL     1      10.832   3.948  -7.294  0.00  0.00    +0.000 A 
ATOM      4  C   UNL     1      10.901   2.746  -7.998  0.00  0.00    +0.000 A 
ATOM      5  C   UNL     1       9.809   1.851  -7.812  0.00  0.00    +0.000 A 
ATOM      6 CL   UNL     1       9.688   0.352  -8.713  0.00  0.00    +0.000 Cl
ATOM      7  C   UNL     1       8.723   2.137  -6.930  0.00  0.00    +0.000 A 
ENDROOT
BRANCH   1  11
ATOM      8  C   UNL     1       9.657   5.450  -2.619  0.00  0.00    +0.000 A 
ATOM      9  N   UNL     1       9.331   4.501  -3.532  0.00  0.00    +0.000 NA
ATOM     10  C   UNL     1       8.106   4.520  -4.095  0.00  0.00    +0.000 A 
ATOM     11  N   UNL     1       7.823   3.685  -5.183  0.00  0.00    +0.000 N 
ATOM     12  N   UNL     1       7.159   5.389  -3.731  0.00  0.00    +0.000 NA
ATOM     13  C   UNL     1       7.534   6.358  -2.866  0.00  0.00    +0.000 A 
ATOM     14  C   UNL     1       8.777   6.461  -2.285  0.00  0.00    +0.000 A 
ATOM     15 CL   UNL     1       9.066   7.765  -1.204  0.00  0.00    +0.000 Cl
ATOM     16  H   UNL     1       6.909   3.325  -5.255  0.00  0.00    +0.000 HD
BRANCH   8  19
ATOM     17  N   UNL     1      12.831   5.627  -0.826  0.00  0.00    +0.000 N 
ATOM     18  C   UNL     1      11.798   6.224  -1.503  0.00  0.00    +0.000 A 
ATOM     19  C   UNL     1      10.948   5.233  -1.956  0.00  0.00    +0.000 A 
ATOM     20  C   UNL     1      11.562   3.980  -1.596  0.00  0.00    +0.000 A 
ATOM     21  C   UNL     1      11.196   2.632  -1.807  0.00  0.00    +0.000 A 
ATOM     22  C   UNL     1      11.980   1.601  -1.278  0.00  0.00    +0.000 A 
ATOM     23  C   UNL     1      13.125   1.899  -0.555  0.00  0.00    +0.000 A 
ATOM     24  C   UNL     1      13.536   3.222  -0.354  0.00  0.00    +0.000 A 
ATOM     25  C   UNL     1      12.726   4.251  -0.879  0.00  0.00    +0.000 A 
BRANCH  17  26
ATOM     26  S   UNL     1      14.041   6.501  -0.003  0.00  0.00    +0.000 S 
ATOM     27  O   UNL     1      13.640   7.895  -0.096  0.00  0.00    +0.000 OA
ATOM     28  O   UNL     1      15.282   6.043  -0.601  0.00  0.00    +0.000 OA
BRANCH  26  30
ATOM     29  C   UNL     1      12.714   6.205   2.403  0.00  0.00    +0.000 C 
ATOM     30  C   UNL     1      14.051   6.042   1.715  0.00  0.00    +0.000 C 
ENDBRANCH  26  30
ENDBRANCH  17  26
ENDBRANCH   8  19
ENDBRANCH   1  11
BRANCH   4  31
ATOM     31  N   UNL     1      12.002   2.538  -8.808  0.00  0.00    +0.000 N 
ATOM     32  C   UNL     1      12.706   3.631  -9.468  0.00  0.00    +0.000 C 
ATOM     33  C   UNL     1      12.783   3.336 -10.962  0.00  0.00    +0.000 C 
ATOM     34  C   UNL     1      13.169   1.877 -11.333  0.00  0.00    +0.000 C 
ATOM     35  C   UNL     1      12.593   0.825 -10.363  0.00  0.00    +0.000 C 
ATOM     36  C   UNL     1      12.675   1.258  -8.913  0.00  0.00    +0.000 C 
BRANCH  34  37
ATOM     37  N   UNL     1      12.954   1.621 -12.785  0.00  0.00    +0.000 N 
ATOM     38  C   UNL     1      11.577   1.793 -13.289  0.00  0.00    +0.000 C 
ATOM     39  C   UNL     1      10.598   0.627 -13.035  0.00  0.00    +0.000 C 
ATOM     40  N   UNL     1      11.111  -0.710 -13.379  0.00  0.00    +0.000 N 
ATOM     41  C   UNL     1      10.291  -1.739 -12.733  0.00  0.00    +0.000 C 
ATOM     42  C   UNL     1      12.531  -0.903 -13.035  0.00  0.00    +0.000 C 
ATOM     43  C   UNL     1      13.446   0.323 -13.288  0.00  0.00    +0.000 C 
ATOM     44  H   UNL     1      13.533   2.374 -13.157  0.00  0.00    +0.000 HD
ATOM     45  H   UNL     1      11.049  -0.794 -14.394  0.00  0.00    +0.000 HD
ENDBRANCH  34  37
ENDBRANCH   4  31
BRANCH   7  46
ATOM     46  O   UNL     1       7.823   1.106  -6.806  0.00  0.00    +0.000 OA
ATOM     47  C   UNL     1       6.437   1.357  -6.682  0.00  0.00    +0.000 C 
ENDBRANCH   7  46
TORSDOF 7
