REMARK  Name = 
REMARK  7 active torsions:
REMARK  status: ('A' for Active; 'I' for Inactive)
REMARK    1  A    between atoms: C_2  and  C_3
REMARK    2  A    between atoms: C_8  and  O_9
REMARK    3  A    between atoms: O_9  and  C_10
REMARK    4  A    between atoms: C_13  and  N_14
REMARK    5  A    between atoms: N_14  and  C_15
REMARK    6  A    between atoms: C_28  and  O_29
REMARK    7  A    between atoms: O_29  and  C_30
REMARK                            x       y       z     vdW  Elec       q    Type
REMARK                         _______ _______ _______ _____ _____    ______ ____
ROOT
ATOM      1  C   UNL     1      -5.570   3.079  -2.466  0.00  0.00    +0.000 A 
ATOM      2  C   UNL     1      -6.562   3.884  -3.046  0.00  0.00    +0.000 A 
ATOM      3  C   UNL     1      -7.908   3.817  -2.628  0.00  0.00    +0.000 A 
ATOM      4  C   UNL     1      -8.933   4.677  -3.067  0.00  0.00    +0.000 A 
ATOM      5  N   UNL     1     -10.197   4.559  -2.629  0.00  0.00    +0.000 NA
ATOM      6  C   UNL     1     -10.432   3.601  -1.731  0.00  0.00    +0.000 A 
ATOM      7  N   UNL     1      -9.530   2.760  -1.218  0.00  0.00    +0.000 NA
ATOM      8  C   UNL     1      -8.273   2.881  -1.658  0.00  0.00    +0.000 A 
ATOM      9  C   UNL     1      -7.291   2.055  -1.114  0.00  0.00    +0.000 A 
ATOM     10  C   UNL     1      -5.945   2.124  -1.503  0.00  0.00    +0.000 A 
ENDROOT
BRANCH   4  11
ATOM     11  N   UNL     1      -8.644   5.733  -3.978  0.00  0.00    +0.000 N 
ATOM     12  H   UNL     1      -7.915   5.596  -4.625  0.00  0.00    +0.000 HD
BRANCH  11  13
ATOM     13  C   UNL     1      -9.338   6.972  -4.011  0.00  0.00    +0.000 A 
ATOM     14  C   UNL     1      -9.489   7.673  -5.217  0.00  0.00    +0.000 A 
ATOM     15  C   UNL     1     -10.134   8.916  -5.239  0.00  0.00    +0.000 A 
ATOM     16  C   UNL     1     -10.607   9.472  -4.056  0.00  0.00    +0.000 A 
ATOM     17  F   UNL     1     -11.218  10.667  -4.099  0.00  0.00    +0.000 F 
ATOM     18  C   UNL     1     -10.437   8.807  -2.847  0.00  0.00    +0.000 A 
ATOM     19 CL   UNL     1     -10.996   9.495  -1.371  0.00  0.00    +0.000 Cl
ATOM     20  C   UNL     1      -9.796   7.569  -2.828  0.00  0.00    +0.000 A 
ENDBRANCH  11  13
ENDBRANCH   4  11
BRANCH   1  21
ATOM     21  O   UNL     1      -4.235   3.197  -2.806  0.00  0.00    +0.000 OA
BRANCH  21  27
ATOM     22  C   UNL     1      -0.996   7.228  -2.135  0.00  0.00    +0.000 C 
ATOM     23  O   UNL     1      -1.178   7.606  -0.980  0.00  0.00    +0.000 OA
ATOM     24  N   UNL     1      -2.030   6.779  -2.966  0.00  0.00    +0.000 N 
ATOM     25  C   UNL     1      -3.392   6.863  -2.459  0.00  0.00    +0.000 C 
ATOM     26  C   UNL     1      -3.857   5.489  -2.022  0.00  0.00    +0.000 C 
ATOM     27  C   UNL     1      -3.798   4.513  -3.207  0.00  0.00    +0.000 C 
ATOM     28  C   UNL     1      -2.369   4.464  -3.780  0.00  0.00    +0.000 C 
ATOM     29  C   UNL     1      -1.860   5.878  -4.110  0.00  0.00    +0.000 C 
BRANCH  22  31
ATOM     30  C   UNL     1       1.444   7.101  -2.010  0.00  0.00    +0.000 C 
ATOM     31  C   UNL     1       0.345   7.272  -2.755  0.00  0.00    +0.000 C 
ENDBRANCH  22  31
ENDBRANCH  21  27
ENDBRANCH   1  21
BRANCH  10  32
ATOM     32  O   UNL     1      -4.952   1.345  -0.960  0.00  0.00    +0.000 OA
BRANCH  32  33
ATOM     33  C   UNL     1      -5.301   0.167  -0.229  0.00  0.00    +0.000 C 
ATOM     34  C   UNL     1      -5.789  -0.969  -1.105  0.00  0.00    +0.000 C 
ATOM     35  C   UNL     1      -5.444  -2.202  -0.296  0.00  0.00    +0.000 C 
ATOM     36  O   UNL     1      -4.314  -1.872   0.521  0.00  0.00    +0.000 OA
ATOM     37  C   UNL     1      -4.049  -0.468   0.370  0.00  0.00    +0.000 C 
ENDBRANCH  32  33
ENDBRANCH  10  32
TORSDOF 7
