
     RDKit          3D

 67 72  0  0  0  0  0  0  0  0999 V2000
    9.7407    0.7114   -0.5246 C   0  0  0  0  0  0  0  0  0  0  0  0
    8.7431    1.7788   -0.7089 N   0  0  0  0  0  0  0  0  0  0  0  0
    7.8800    1.5523   -1.8992 C   0  0  0  0  0  0  0  0  0  0  0  0
    6.4145    1.2132   -1.5600 C   0  0  0  0  0  0  0  0  0  0  0  0
    6.3469    0.2817   -0.3409 C   0  0  0  0  0  0  0  0  0  0  0  0
    4.9257   -0.1651   -0.0477 C   0  0  0  0  0  0  0  0  0  0  0  0
    3.9026    0.7715    0.1873 C   0  0  0  0  0  0  0  0  0  0  0  0
    2.6018    0.3470    0.4677 C   0  0  0  0  0  0  0  0  0  0  0  0
    2.2978   -1.0227    0.5376 C   0  0  0  0  0  0  0  0  0  0  0  0
    0.9180   -1.4743    0.8418 C   0  0  0  0  0  0  0  0  0  0  0  0
    0.6894   -2.5389    1.7299 C   0  0  0  0  0  0  0  0  0  0  0  0
   -0.5786   -2.9385    2.0125 N   0  0  0  0  0  0  0  0  0  0  0  0
   -1.6598   -2.3408    1.4484 C   0  0  0  0  0  0  0  0  0  0  0  0
   -2.9056   -2.7579    1.7697 N   0  0  0  0  0  0  0  0  0  0  0  0
   -4.0049   -2.1804    1.2233 C   0  0  0  0  0  0  0  0  0  0  0  0
   -3.8879   -1.1671    0.3047 N   0  0  0  0  0  0  0  0  0  0  0  0
   -5.0983   -0.5093   -0.2497 C   0  0  0  0  0  0  0  0  0  0  0  0
   -5.5248    0.6451    0.6260 C   0  0  0  0  0  0  0  0  0  0  0  0
   -5.2886    0.6111    1.8643 O   0  0  0  0  0  0  0  0  0  0  0  0
   -6.2495    1.7429    0.0499 N   0  0  0  0  0  0  0  0  0  0  0  0
   -6.5233    2.9817    0.7202 C   0  0  0  0  0  0  0  0  0  0  0  0
   -7.3083    3.9385    0.1797 N   0  0  0  0  0  0  0  0  0  0  0  0
   -7.3928    5.0351    0.9795 C   0  0  0  0  0  0  0  0  0  0  0  0
   -6.6661    4.9626    2.1623 C   0  0  0  0  0  0  0  0  0  0  0  0
   -5.8914    3.4706    2.2054 S   0  0  0  0  0  0  0  0  0  0  0  0
   -6.2263   -1.4962   -0.5276 C   0  0  0  0  0  0  0  0  0  0  0  0
   -6.1748   -2.2785   -1.6957 C   0  0  0  0  0  0  0  0  0  0  0  0
   -7.1802   -3.2111   -1.9721 C   0  0  0  0  0  0  0  0  0  0  0  0
   -8.2415   -3.3827   -1.0807 C   0  0  0  0  0  0  0  0  0  0  0  0
   -8.2975   -2.6261    0.0915 C   0  0  0  0  0  0  0  0  0  0  0  0
   -7.2957   -1.6915    0.3732 C   0  0  0  0  0  0  0  0  0  0  0  0
   -2.6370   -0.6954   -0.0201 C   0  0  0  0  0  0  0  0  0  0  0  0
   -2.5095    0.2743   -0.8201 O   0  0  0  0  0  0  0  0  0  0  0  0
   -1.4910   -1.2810    0.5454 C   0  0  0  0  0  0  0  0  0  0  0  0
   -0.1891   -0.8455    0.2486 C   0  0  0  0  0  0  0  0  0  0  0  0
    3.3223   -1.9584    0.3195 C   0  0  0  0  0  0  0  0  0  0  0  0
    4.6211   -1.5345    0.0284 C   0  0  0  0  0  0  0  0  0  0  0  0
    7.0023    0.9322    0.8999 C   0  0  0  0  0  0  0  0  0  0  0  0
    7.9940    2.0561    0.5337 C   0  0  0  0  0  0  0  0  0  0  0  0
   10.4143    0.9560    0.3256 H   0  0  0  0  0  0  0  0  0  0  0  0
    9.2590   -0.2704   -0.3316 H   0  0  0  0  0  0  0  0  0  0  0  0
   10.3748    0.6263   -1.4329 H   0  0  0  0  0  0  0  0  0  0  0  0
    8.2883    0.7441   -2.5479 H   0  0  0  0  0  0  0  0  0  0  0  0
    7.8905    2.4750   -2.5176 H   0  0  0  0  0  0  0  0  0  0  0  0
    5.9379    0.7272   -2.4394 H   0  0  0  0  0  0  0  0  0  0  0  0
    5.8639    2.1567   -1.3567 H   0  0  0  0  0  0  0  0  0  0  0  0
    6.9475   -0.6172   -0.6059 H   0  0  0  0  0  0  0  0  0  0  0  0
    4.1108    1.8325    0.1632 H   0  0  0  0  0  0  0  0  0  0  0  0
    1.8379    1.0917    0.6524 H   0  0  0  0  0  0  0  0  0  0  0  0
    1.5167   -3.0379    2.2175 H   0  0  0  0  0  0  0  0  0  0  0  0
   -4.9745   -2.5370    1.5383 H   0  0  0  0  0  0  0  0  0  0  0  0
   -4.8484   -0.0650   -1.2390 H   0  0  0  0  0  0  0  0  0  0  0  0
   -6.5925    1.6424   -0.9314 H   0  0  0  0  0  0  0  0  0  0  0  0
   -7.9863    5.8975    0.7078 H   0  0  0  0  0  0  0  0  0  0  0  0
   -6.6076    5.7321    2.9194 H   0  0  0  0  0  0  0  0  0  0  0  0
   -5.3535   -2.1645   -2.3936 H   0  0  0  0  0  0  0  0  0  0  0  0
   -7.1360   -3.8030   -2.8768 H   0  0  0  0  0  0  0  0  0  0  0  0
   -9.0179   -4.1059   -1.2939 H   0  0  0  0  0  0  0  0  0  0  0  0
   -9.1176   -2.7669    0.7858 H   0  0  0  0  0  0  0  0  0  0  0  0
   -7.3552   -1.1317    1.2976 H   0  0  0  0  0  0  0  0  0  0  0  0
   -0.0327   -0.0345   -0.4531 H   0  0  0  0  0  0  0  0  0  0  0  0
    3.1157   -3.0202    0.3570 H   0  0  0  0  0  0  0  0  0  0  0  0
    5.3882   -2.2806   -0.1382 H   0  0  0  0  0  0  0  0  0  0  0  0
    7.5345    0.1462    1.4798 H   0  0  0  0  0  0  0  0  0  0  0  0
    6.2364    1.3634    1.5802 H   0  0  0  0  0  0  0  0  0  0  0  0
    8.6953    2.2261    1.3819 H   0  0  0  0  0  0  0  0  0  0  0  0
    7.4328    3.0073    0.4037 H   0  0  0  0  0  0  0  0  0  0  0  0
  1  2  1  0
  2  3  1  0
  3  4  1  0
  4  5  1  0
  5  6  1  0
  6  7  2  0
  7  8  1  0
  8  9  2  0
  9 10  1  0
 10 11  2  0
 11 12  1  0
 12 13  2  0
 13 14  1  0
 14 15  2  0
 15 16  1  0
 16 17  1  0
 17 18  1  0
 18 19  2  0
 18 20  1  0
 20 21  1  0
 21 22  2  0
 22 23  1  0
 23 24  2  0
 24 25  1  0
 17 26  1  0
 26 27  2  0
 27 28  1  0
 28 29  2  0
 29 30  1  0
 30 31  2  0
 16 32  1  0
 32 33  2  0
 32 34  1  0
 34 35  2  0
  9 36  1  0
 36 37  2  0
  5 38  1  0
 38 39  1  0
 39  2  1  0
 37  6  1  0
 35 10  1  0
 34 13  1  0
 25 21  1  0
 31 26  1  0
  1 40  1  0
  1 41  1  0
  1 42  1  0
  3 43  1  0
  3 44  1  0
  4 45  1  0
  4 46  1  0
  5 47  1  0
  7 48  1  0
  8 49  1  0
 11 50  1  0
 15 51  1  0
 17 52  1  0
 20 53  1  0
 23 54  1  0
 24 55  1  0
 27 56  1  0
 28 57  1  0
 29 58  1  0
 30 59  1  0
 31 60  1  0
 35 61  1  0
 36 62  1  0
 37 63  1  0
 38 64  1  0
 38 65  1  0
 39 66  1  0
 39 67  1  0
M  END
