REMARK  Name = 
REMARK  10 active torsions:
REMARK  status: ('A' for Active; 'I' for Inactive)
REMARK    1  A    between atoms: C_1  and  O_2
REMARK    2  A    between atoms: O_2  and  C_3
REMARK    3  A    between atoms: C_9  and  C_10
REMARK    4  A    between atoms: C_11  and  C_12
REMARK    5  A    between atoms: C_12  and  C_13
REMARK    6  A    between atoms: C_12  and  C_14
REMARK    7  A    between atoms: C_12  and  C_15
REMARK    8  A    between atoms: C_15  and  C_16
REMARK    9  A    between atoms: C_24  and  O_25
REMARK   10  A    between atoms: O_25  and  C_26
REMARK                            x       y       z     vdW  Elec       q    Type
REMARK                         _______ _______ _______ _____ _____    ______ ____
ROOT
ATOM      1  C   UNL     1       1.092  -1.265   1.969  0.00  0.00    +0.000 A 
ATOM      2  C   UNL     1       0.072  -2.089   2.471  0.00  0.00    +0.000 A 
ATOM      3  C   UNL     1       0.330  -3.352   3.000  0.00  0.00    +0.000 A 
ATOM      4  N   UNL     1      -0.678  -4.130   3.416  0.00  0.00    +0.000 NA
ATOM      5  C   UNL     1      -0.360  -5.351   3.890  0.00  0.00    +0.000 A 
ATOM      6  N   UNL     1       0.866  -5.862   3.996  0.00  0.00    +0.000 NA
ATOM      7  C   UNL     1       1.856  -5.055   3.573  0.00  0.00    +0.000 A 
ATOM      8  C   UNL     1       1.660  -3.777   3.054  0.00  0.00    +0.000 A 
ATOM      9  C   UNL     1       2.700  -2.929   2.606  0.00  0.00    +0.000 A 
ATOM     10  C   UNL     1       2.424  -1.683   2.055  0.00  0.00    +0.000 A 
ENDROOT
BRANCH   1  12
ATOM     11  C   UNL     1       1.428   0.414   0.337  0.00  0.00    +0.000 C 
ATOM     12  O   UNL     1       0.662  -0.072   1.438  0.00  0.00    +0.000 OA
ENDBRANCH   1  12
BRANCH   7  13
ATOM     13  C   UNL     1       3.169  -5.633   3.656  0.00  0.00    +0.000 C 
ATOM     14  C   UNL     1       4.296  -6.044   3.662  0.00  0.00    +0.000 C 
BRANCH  14  15
ATOM     15  C   UNL     1       5.696  -6.541   3.639  0.00  0.00    +0.000 C 
ATOM     16  C   UNL     1       6.642  -5.373   3.992  0.00  0.00    +0.000 C 
ATOM     17  C   UNL     1       5.859  -7.634   4.704  0.00  0.00    +0.000 C 
BRANCH  15  18
ATOM     18  C   UNL     1       6.093  -7.049   2.224  0.00  0.00    +0.000 C 
BRANCH  18  19
ATOM     19  C   UNL     1       5.279  -8.192   1.660  0.00  0.00    +0.000 A 
ATOM     20  C   UNL     1       4.130  -7.938   0.898  0.00  0.00    +0.000 A 
ATOM     21  C   UNL     1       3.381  -8.993   0.373  0.00  0.00    +0.000 A 
ATOM     22  C   UNL     1       3.775 -10.309   0.603  0.00  0.00    +0.000 A 
ATOM     23  C   UNL     1       4.914 -10.573   1.359  0.00  0.00    +0.000 A 
ATOM     24  C   UNL     1       5.664  -9.520   1.885  0.00  0.00    +0.000 A 
ENDBRANCH  18  19
ENDBRANCH  15  18
ENDBRANCH  14  15
ENDBRANCH   7  13
BRANCH  10  25
ATOM     25  O   UNL     1       3.425  -0.824   1.693  0.00  0.00    +0.000 OA
ATOM     26  C   UNL     1       4.568  -1.416   1.089  0.00  0.00    +0.000 C 
ENDBRANCH  10  25
TORSDOF 6
