REMARK  Name = 
REMARK  12 active torsions:
REMARK  status: ('A' for Active; 'I' for Inactive)
REMARK    1  A    between atoms: C_1  and  O_2
REMARK    2  A    between atoms: O_2  and  C_3
REMARK    3  A    between atoms: C_6  and  N_7
REMARK    4  A    between atoms: N_7  and  C_8
REMARK    5  A    between atoms: C_11  and  N_12
REMARK    6  A    between atoms: C_13  and  C_15
REMARK    7  A    between atoms: C_15  and  C_16
REMARK    8  A    between atoms: C_15  and  N_24
REMARK    9  A    between atoms: C_42  and  O_43
REMARK   10  A    between atoms: O_43  and  C_44
REMARK   11  A    between atoms: C_44  and  C_45
REMARK   12  A    between atoms: N_48  and  C_49
REMARK                            x       y       z     vdW  Elec       q    Type
REMARK                         _______ _______ _______ _____ _____    ______ ____
ROOT
ATOM      1  C   UNL     1      -2.668   6.188  -3.210  0.00  0.00    +0.000 A 
ATOM      2  C   UNL     1      -3.544   5.671  -4.170  0.00  0.00    +0.000 A 
ATOM      3  C   UNL     1      -4.670   6.388  -4.569  0.00  0.00    +0.000 A 
ATOM      4  C   UNL     1      -4.975   7.645  -4.029  0.00  0.00    +0.000 A 
ATOM      5  C   UNL     1      -4.106   8.167  -3.066  0.00  0.00    +0.000 A 
ATOM      6  C   UNL     1      -2.973   7.441  -2.667  0.00  0.00    +0.000 A 
ATOM      7  F   UNL     1      -2.241   7.917  -1.646  0.00  0.00    +0.000 F 
ENDROOT
BRANCH   4   8
ATOM      8  N   UNL     1      -6.147   8.368  -4.384  0.00  0.00    +0.000 N 
ATOM      9  C   UNL     1      -7.027   7.998  -5.395  0.00  0.00    +0.000 C 
ATOM     10  O   UNL     1      -6.809   7.073  -6.181  0.00  0.00    +0.000 OA
ATOM     11  H   UNL     1      -6.349   9.189  -3.879  0.00  0.00    +0.000 HD
BRANCH   9  12
ATOM     12  C   UNL     1      -8.291   8.892  -5.614  0.00  0.00    +0.000 C 
BRANCH  12  13
ATOM     13  N   UNL     1      -9.519   8.075  -5.830  0.00  0.00    +0.000 N 
ATOM     14  C   UNL     1      -9.585   6.864  -6.654  0.00  0.00    +0.000 C 
ATOM     15  C   UNL     1     -10.847   6.208  -6.212  0.00  0.00    +0.000 A 
ATOM     16  C   UNL     1     -11.351   4.971  -6.579  0.00  0.00    +0.000 A 
ATOM     17  C   UNL     1     -12.562   4.564  -6.018  0.00  0.00    +0.000 A 
ATOM     18  C   UNL     1     -13.248   5.398  -5.118  0.00  0.00    +0.000 A 
ATOM     19  C   UNL     1     -12.719   6.640  -4.743  0.00  0.00    +0.000 A 
ATOM     20  C   UNL     1     -11.508   7.016  -5.296  0.00  0.00    +0.000 A 
ATOM     21  C   UNL     1     -10.649   8.186  -5.022  0.00  0.00    +0.000 C 
ATOM     22  O   UNL     1     -10.889   9.040  -4.190  0.00  0.00    +0.000 OA
ENDBRANCH  12  13
BRANCH  12  23
ATOM     23  C   UNL     1      -7.931   9.846  -6.752  0.00  0.00    +0.000 A 
ATOM     24  C   UNL     1      -8.072   9.513  -8.106  0.00  0.00    +0.000 A 
ATOM     25  C   UNL     1      -7.445  10.267  -9.095  0.00  0.00    +0.000 A 
ATOM     26  F   UNL     1      -7.540   9.876 -10.372  0.00  0.00    +0.000 F 
ATOM     27  C   UNL     1      -6.683  11.381  -8.773  0.00  0.00    +0.000 A 
ATOM     28  C   UNL     1      -6.574  11.765  -7.439  0.00  0.00    +0.000 A 
ATOM     29  C   UNL     1      -7.189  10.999  -6.447  0.00  0.00    +0.000 A 
ATOM     30  F   UNL     1      -6.991  11.338  -5.164  0.00  0.00    +0.000 F 
ENDBRANCH  12  23
ENDBRANCH   9  12
ENDBRANCH   4   8
BRANCH   1  31
ATOM     31  N   UNL     1      -1.729   5.278  -2.678  0.00  0.00    +0.000 N 
ATOM     32  H   UNL     1      -1.989   4.329  -2.668  0.00  0.00    +0.000 HD
BRANCH  31  36
ATOM     33  C   UNL     1       0.243   2.585  -0.005  0.00  0.00    +0.000 A 
ATOM     34  C   UNL     1      -0.465   3.531  -0.739  0.00  0.00    +0.000 A 
ATOM     35  C   UNL     1       0.156   4.692  -1.258  0.00  0.00    +0.000 A 
ATOM     36  C   UNL     1      -0.448   5.595  -2.155  0.00  0.00    +0.000 A 
ATOM     37  N   UNL     1       0.223   6.637  -2.673  0.00  0.00    +0.000 NA
ATOM     38  C   UNL     1       1.479   6.806  -2.254  0.00  0.00    +0.000 A 
ATOM     39  N   UNL     1       2.131   6.038  -1.371  0.00  0.00    +0.000 NA
ATOM     40  C   UNL     1       1.469   4.980  -0.896  0.00  0.00    +0.000 A 
ATOM     41  C   UNL     1       2.117   4.115  -0.025  0.00  0.00    +0.000 A 
ATOM     42  C   UNL     1       1.545   2.903   0.403  0.00  0.00    +0.000 A 
BRANCH  33  44
ATOM     43  C   UNL     1      -1.378   0.876  -0.473  0.00  0.00    +0.000 C 
ATOM     44  O   UNL     1      -0.283   1.360   0.315  0.00  0.00    +0.000 OA
ENDBRANCH  33  44
BRANCH  42  45
ATOM     45  O   UNL     1       2.205   2.001   1.211  0.00  0.00    +0.000 OA
BRANCH  45  46
ATOM     46  C   UNL     1       3.618   2.203   1.329  0.00  0.00    +0.000 C 
BRANCH  46  47
ATOM     47  C   UNL     1       4.326   0.977   1.931  0.00  0.00    +0.000 C 
ATOM     48  C   UNL     1       5.852   1.108   1.788  0.00  0.00    +0.000 C 
ATOM     49  C   UNL     1       6.309   0.969   0.329  0.00  0.00    +0.000 C 
ATOM     50  N   UNL     1       5.825  -0.277  -0.278  0.00  0.00    +0.000 N 
ATOM     51  C   UNL     1       6.230  -0.349  -1.684  0.00  0.00    +0.000 C 
ATOM     52  C   UNL     1       4.367  -0.438  -0.168  0.00  0.00    +0.000 C 
ATOM     53  C   UNL     1       3.889  -0.339   1.281  0.00  0.00    +0.000 C 
ATOM     54  H   UNL     1       6.252  -1.042   0.245  0.00  0.00    +0.000 HD
ENDBRANCH  46  47
ENDBRANCH  45  46
ENDBRANCH  42  45
ENDBRANCH  31  36
ENDBRANCH   1  31
TORSDOF 10
