MODEL 1
REMARK VINA RESULT:    -9.087      0.000      0.000
REMARK INTER + INTRA:         -15.486
REMARK INTER:                 -13.869
REMARK INTRA:                  -1.618
REMARK UNBOUND:                -1.618
REMARK  Name = 
REMARK  11 active torsions:
REMARK  status: ('A' for Active; 'I' for Inactive)
REMARK    1  A    between atoms: C_1  and  N_2
REMARK    2  A    between atoms: N_2  and  C_3
REMARK    3  A    between atoms: N_2  and  C_4
REMARK    4  A    between atoms: C_4  and  C_5
REMARK    5  A    between atoms: C_6  and  C_7
REMARK    6  A    between atoms: N_9  and  C_10
REMARK    7  A    between atoms: C_14  and  N_15
REMARK    8  A    between atoms: N_19  and  N_20
REMARK    9  A    between atoms: C_21  and  C_22
REMARK   10  A    between atoms: N_24  and  C_25
REMARK   11  A    between atoms: C_25  and  C_26
REMARK                            x       y       z     vdW  Elec       q    Type
REMARK                         _______ _______ _______ _____ _____    ______ ____
ROOT
ATOM      1  N   UNL     1      24.506  -0.365  53.655  0.00  0.00    +0.000 N 
ATOM      2  C   UNL     1      25.223   0.692  53.027  0.00  0.00    +0.000 A 
ATOM      3  N   UNL     1      24.603   1.878  52.857  0.00  0.00    +0.000 NA
ATOM      4  C   UNL     1      25.253   2.866  52.229  0.00  0.00    +0.000 A 
ATOM      5  N   UNL     1      24.506   4.027  52.027  0.00  0.00    +0.000 N 
ATOM      6  N   UNL     1      26.508   2.761  51.777  0.00  0.00    +0.000 NA
ATOM      7  C   UNL     1      27.152   1.615  52.054  0.00  0.00    +0.000 A 
ATOM      8  C   UNL     1      26.558   0.547  52.689  0.00  0.00    +0.000 A 
ATOM      9 CL   UNL     1      27.455  -0.892  52.975  0.00  0.00    +0.000 Cl
ATOM     10  H   UNL     1      25.018  -1.076  54.106  0.00  0.00    +0.000 HD
ATOM     11  H   UNL     1      23.631   4.091  52.472  0.00  0.00    +0.000 HD
ENDROOT
BRANCH   1  16
ATOM     12  C   UNL     1      20.894   0.053  52.699  0.00  0.00    +0.000 A 
ATOM     13  C   UNL     1      20.303  -0.730  53.690  0.00  0.00    +0.000 A 
ATOM     14  C   UNL     1      21.087  -1.371  54.653  0.00  0.00    +0.000 A 
ATOM     15  C   UNL     1      22.473  -1.227  54.637  0.00  0.00    +0.000 A 
ATOM     16  C   UNL     1      23.090  -0.442  53.661  0.00  0.00    +0.000 A 
ATOM     17  C   UNL     1      22.293   0.145  52.660  0.00  0.00    +0.000 A 
BRANCH  12  20
ATOM     18  C   UNL     1      19.764   2.099  51.838  0.00  0.00    +0.000 C 
ATOM     19  O   UNL     1      19.995   2.864  52.768  0.00  0.00    +0.000 OA
ATOM     20  N   UNL     1      20.156   0.779  51.735  0.00  0.00    +0.000 N 
ATOM     21  H   UNL     1      19.898   0.300  50.914  0.00  0.00    +0.000 HD
BRANCH  18  23
ATOM     22  C   UNL     1      18.838   3.882  50.430  0.00  0.00    +0.000 C 
ATOM     23  C   UNL     1      18.997   2.564  50.649  0.00  0.00    +0.000 C 
BRANCH  22  24
ATOM     24  C   UNL     1      17.969   4.520  49.382  0.00  0.00    +0.000 C 
BRANCH  24  26
ATOM     25  C   UNL     1      19.650   6.258  49.601  0.00  0.00    +0.000 C 
ATOM     26  N   UNL     1      18.368   5.882  48.986  0.00  0.00    +0.000 N 
ATOM     27  C   UNL     1      18.510   5.949  47.527  0.00  0.00    +0.000 C 
ATOM     28  H   UNL     1      17.646   6.528  49.305  0.00  0.00    +0.000 HD
ENDBRANCH  24  26
ENDBRANCH  22  24
ENDBRANCH  18  23
ENDBRANCH  12  20
ENDBRANCH   1  16
BRANCH   5  29
ATOM     29  N   UNL     1      24.902   5.070  51.260  0.00  0.00    +0.000 NA
ATOM     30  C   UNL     1      24.417   5.142  50.058  0.00  0.00    +0.000 C 
BRANCH  30  31
ATOM     31  C   UNL     1      24.392   6.465  49.472  0.00  0.00    +0.000 A 
ATOM     32  C   UNL     1      23.197   7.075  49.145  0.00  0.00    +0.000 A 
ATOM     33  N   UNL     1      23.397   7.543  47.873  0.00  0.00    +0.000 N 
ATOM     34  C   UNL     1      24.748   7.638  47.617  0.00  0.00    +0.000 A 
ATOM     35  C   UNL     1      25.456   8.041  46.478  0.00  0.00    +0.000 A 
ATOM     36  C   UNL     1      26.829   8.242  46.608  0.00  0.00    +0.000 A 
ATOM     37  C   UNL     1      27.478   7.986  47.812  0.00  0.00    +0.000 A 
ATOM     38  C   UNL     1      26.793   7.378  48.875  0.00  0.00    +0.000 A 
ATOM     39  C   UNL     1      25.400   7.189  48.773  0.00  0.00    +0.000 A 
BRANCH  33  40
ATOM     40  C   UNL     1      22.304   7.741  46.941  0.00  0.00    +0.000 C 
BRANCH  40  41
ATOM     41  C   UNL     1      22.003   6.484  46.182  0.00  0.00    +0.000 A 
ATOM     42  C   UNL     1      22.161   5.238  46.798  0.00  0.00    +0.000 A 
ATOM     43  C   UNL     1      21.853   4.068  46.114  0.00  0.00    +0.000 A 
ATOM     44  C   UNL     1      21.385   4.130  44.805  0.00  0.00    +0.000 A 
ATOM     45  C   UNL     1      21.262   5.362  44.166  0.00  0.00    +0.000 A 
ATOM     46  C   UNL     1      21.578   6.537  44.847  0.00  0.00    +0.000 A 
ENDBRANCH  40  41
ENDBRANCH  33  40
ENDBRANCH  30  31
ENDBRANCH   5  29
TORSDOF 9
ENDMDL
MODEL 2
REMARK VINA RESULT:    -9.041      1.340      2.246
REMARK INTER + INTRA:         -15.416
REMARK INTER:                 -13.727
REMARK INTRA:                  -1.689
REMARK UNBOUND:                -1.618
REMARK  Name = 
REMARK  11 active torsions:
REMARK  status: ('A' for Active; 'I' for Inactive)
REMARK    1  A    between atoms: C_1  and  N_2
REMARK    2  A    between atoms: N_2  and  C_3
REMARK    3  A    between atoms: N_2  and  C_4
REMARK    4  A    between atoms: C_4  and  C_5
REMARK    5  A    between atoms: C_6  and  C_7
REMARK    6  A    between atoms: N_9  and  C_10
REMARK    7  A    between atoms: C_14  and  N_15
REMARK    8  A    between atoms: N_19  and  N_20
REMARK    9  A    between atoms: C_21  and  C_22
REMARK   10  A    between atoms: N_24  and  C_25
REMARK   11  A    between atoms: C_25  and  C_26
REMARK                            x       y       z     vdW  Elec       q    Type
REMARK                         _______ _______ _______ _____ _____    ______ ____
ROOT
ATOM      1  N   UNL     1      24.649  -0.302  53.882  0.00  0.00    +0.000 N 
ATOM      2  C   UNL     1      25.410   0.690  53.202  0.00  0.00    +0.000 A 
ATOM      3  N   UNL     1      24.803   1.846  52.860  0.00  0.00    +0.000 NA
ATOM      4  C   UNL     1      25.498   2.768  52.182  0.00  0.00    +0.000 A 
ATOM      5  N   UNL     1      24.768   3.894  51.802  0.00  0.00    +0.000 N 
ATOM      6  N   UNL     1      26.784   2.628  51.841  0.00  0.00    +0.000 NA
ATOM      7  C   UNL     1      27.406   1.523  52.285  0.00  0.00    +0.000 A 
ATOM      8  C   UNL     1      26.767   0.523  52.982  0.00  0.00    +0.000 A 
ATOM      9 CL   UNL     1      27.641  -0.870  53.487  0.00  0.00    +0.000 Cl
ATOM     10  H   UNL     1      25.125  -0.956  54.442  0.00  0.00    +0.000 HD
ATOM     11  H   UNL     1      23.861   3.996  52.171  0.00  0.00    +0.000 HD
ENDROOT
BRANCH   1  16
ATOM     12  C   UNL     1      21.109   0.090  52.677  0.00  0.00    +0.000 A 
ATOM     13  C   UNL     1      20.456  -0.703  53.621  0.00  0.00    +0.000 A 
ATOM     14  C   UNL     1      21.177  -1.342  54.633  0.00  0.00    +0.000 A 
ATOM     15  C   UNL     1      22.560  -1.186  54.715  0.00  0.00    +0.000 A 
ATOM     16  C   UNL     1      23.236  -0.391  53.788  0.00  0.00    +0.000 A 
ATOM     17  C   UNL     1      22.506   0.194  52.736  0.00  0.00    +0.000 A 
BRANCH  12  20
ATOM     18  C   UNL     1      19.923   2.093  51.788  0.00  0.00    +0.000 C 
ATOM     19  O   UNL     1      19.978   2.816  52.777  0.00  0.00    +0.000 OA
ATOM     20  N   UNL     1      20.433   0.815  51.667  0.00  0.00    +0.000 N 
ATOM     21  H   UNL     1      20.315   0.368  50.798  0.00  0.00    +0.000 HD
BRANCH  18  23
ATOM     22  C   UNL     1      20.014   2.833  49.451  0.00  0.00    +0.000 C 
ATOM     23  C   UNL     1      19.268   2.570  50.538  0.00  0.00    +0.000 C 
BRANCH  22  24
ATOM     24  C   UNL     1      19.546   3.466  48.171  0.00  0.00    +0.000 C 
BRANCH  24  26
ATOM     25  C   UNL     1      19.893   3.914  45.811  0.00  0.00    +0.000 C 
ATOM     26  N   UNL     1      20.414   3.232  47.004  0.00  0.00    +0.000 N 
ATOM     27  C   UNL     1      21.763   3.739  47.284  0.00  0.00    +0.000 C 
ATOM     28  H   UNL     1      20.439   2.228  46.827  0.00  0.00    +0.000 HD
ENDBRANCH  24  26
ENDBRANCH  22  24
ENDBRANCH  18  23
ENDBRANCH  12  20
ENDBRANCH   1  16
BRANCH   5  29
ATOM     29  N   UNL     1      25.219   4.854  50.962  0.00  0.00    +0.000 NA
ATOM     30  C   UNL     1      24.333   5.627  50.411  0.00  0.00    +0.000 C 
BRANCH  30  31
ATOM     31  C   UNL     1      24.813   6.924  49.987  0.00  0.00    +0.000 A 
ATOM     32  C   UNL     1      24.036   8.055  50.141  0.00  0.00    +0.000 A 
ATOM     33  N   UNL     1      24.107   8.679  48.923  0.00  0.00    +0.000 N 
ATOM     34  C   UNL     1      25.211   8.231  48.232  0.00  0.00    +0.000 A 
ATOM     35  C   UNL     1      25.705   8.543  46.959  0.00  0.00    +0.000 A 
ATOM     36  C   UNL     1      26.980   8.084  46.630  0.00  0.00    +0.000 A 
ATOM     37  C   UNL     1      27.703   7.288  47.515  0.00  0.00    +0.000 A 
ATOM     38  C   UNL     1      27.106   6.806  48.689  0.00  0.00    +0.000 A 
ATOM     39  C   UNL     1      25.829   7.278  49.052  0.00  0.00    +0.000 A 
BRANCH  33  40
ATOM     40  C   UNL     1      23.056   9.554  48.440  0.00  0.00    +0.000 C 
BRANCH  40  41
ATOM     41  C   UNL     1      21.716   8.884  48.511  0.00  0.00    +0.000 A 
ATOM     42  C   UNL     1      20.713   9.407  49.334  0.00  0.00    +0.000 A 
ATOM     43  C   UNL     1      19.457   8.812  49.382  0.00  0.00    +0.000 A 
ATOM     44  C   UNL     1      19.191   7.688  48.607  0.00  0.00    +0.000 A 
ATOM     45  C   UNL     1      20.193   7.134  47.813  0.00  0.00    +0.000 A 
ATOM     46  C   UNL     1      21.456   7.722  47.770  0.00  0.00    +0.000 A 
ENDBRANCH  40  41
ENDBRANCH  33  40
ENDBRANCH  30  31
ENDBRANCH   5  29
TORSDOF 9
ENDMDL
MODEL 3
REMARK VINA RESULT:    -8.988      1.520      3.989
REMARK INTER + INTRA:         -15.334
REMARK INTER:                 -13.771
REMARK INTRA:                  -1.563
REMARK UNBOUND:                -1.618
REMARK  Name = 
REMARK  11 active torsions:
REMARK  status: ('A' for Active; 'I' for Inactive)
REMARK    1  A    between atoms: C_1  and  N_2
REMARK    2  A    between atoms: N_2  and  C_3
REMARK    3  A    between atoms: N_2  and  C_4
REMARK    4  A    between atoms: C_4  and  C_5
REMARK    5  A    between atoms: C_6  and  C_7
REMARK    6  A    between atoms: N_9  and  C_10
REMARK    7  A    between atoms: C_14  and  N_15
REMARK    8  A    between atoms: N_19  and  N_20
REMARK    9  A    between atoms: C_21  and  C_22
REMARK   10  A    between atoms: N_24  and  C_25
REMARK   11  A    between atoms: C_25  and  C_26
REMARK                            x       y       z     vdW  Elec       q    Type
REMARK                         _______ _______ _______ _____ _____    ______ ____
ROOT
ATOM      1  N   UNL     1      24.650  -0.502  53.885  0.00  0.00    +0.000 N 
ATOM      2  C   UNL     1      25.484   0.421  53.193  0.00  0.00    +0.000 A 
ATOM      3  N   UNL     1      24.964   1.612  52.830  0.00  0.00    +0.000 NA
ATOM      4  C   UNL     1      25.727   2.470  52.141  0.00  0.00    +0.000 A 
ATOM      5  N   UNL     1      25.081   3.640  51.740  0.00  0.00    +0.000 N 
ATOM      6  N   UNL     1      27.001   2.232  51.809  0.00  0.00    +0.000 NA
ATOM      7  C   UNL     1      27.539   1.093  52.275  0.00  0.00    +0.000 A 
ATOM      8  C   UNL     1      26.826   0.153  52.984  0.00  0.00    +0.000 A 
ATOM      9 CL   UNL     1      27.595  -1.291  53.516  0.00  0.00    +0.000 Cl
ATOM     10  H   UNL     1      25.075  -1.180  54.459  0.00  0.00    +0.000 HD
ATOM     11  H   UNL     1      24.183   3.814  52.101  0.00  0.00    +0.000 HD
ENDROOT
BRANCH   1  16
ATOM     12  C   UNL     1      21.153   0.126  52.655  0.00  0.00    +0.000 A 
ATOM     13  C   UNL     1      20.441  -0.604  53.607  0.00  0.00    +0.000 A 
ATOM     14  C   UNL     1      21.109  -1.277  54.632  0.00  0.00    +0.000 A 
ATOM     15  C   UNL     1      22.499  -1.220  54.720  0.00  0.00    +0.000 A 
ATOM     16  C   UNL     1      23.235  -0.491  53.784  0.00  0.00    +0.000 A 
ATOM     17  C   UNL     1      22.554   0.130  52.720  0.00  0.00    +0.000 A 
BRANCH  12  20
ATOM     18  C   UNL     1      20.039   2.164  51.755  0.00  0.00    +0.000 C 
ATOM     19  O   UNL     1      20.058   2.866  52.761  0.00  0.00    +0.000 OA
ATOM     20  N   UNL     1      20.536   0.882  51.630  0.00  0.00    +0.000 N 
ATOM     21  H   UNL     1      20.452   0.454  50.747  0.00  0.00    +0.000 HD
BRANCH  18  23
ATOM     22  C   UNL     1      20.140   3.556  49.737  0.00  0.00    +0.000 C 
ATOM     23  C   UNL     1      19.451   2.677  50.486  0.00  0.00    +0.000 C 
BRANCH  22  24
ATOM     24  C   UNL     1      19.639   4.291  48.525  0.00  0.00    +0.000 C 
BRANCH  24  26
ATOM     25  C   UNL     1      19.879   4.639  46.135  0.00  0.00    +0.000 C 
ATOM     26  N   UNL     1      19.975   3.666  47.233  0.00  0.00    +0.000 N 
ATOM     27  C   UNL     1      21.346   3.145  47.281  0.00  0.00    +0.000 C 
ATOM     28  H   UNL     1      19.310   2.911  47.066  0.00  0.00    +0.000 HD
ENDBRANCH  24  26
ENDBRANCH  22  24
ENDBRANCH  18  23
ENDBRANCH  12  20
ENDBRANCH   1  16
BRANCH   5  29
ATOM     29  N   UNL     1      25.605   4.551  50.886  0.00  0.00    +0.000 NA
ATOM     30  C   UNL     1      25.253   4.469  49.639  0.00  0.00    +0.000 C 
BRANCH  30  31
ATOM     31  C   UNL     1      25.354   5.696  48.879  0.00  0.00    +0.000 A 
ATOM     32  C   UNL     1      26.499   6.466  48.921  0.00  0.00    +0.000 A 
ATOM     33  N   UNL     1      26.038   7.740  49.128  0.00  0.00    +0.000 N 
ATOM     34  C   UNL     1      24.711   7.822  48.766  0.00  0.00    +0.000 A 
ATOM     35  C   UNL     1      23.798   8.883  48.803  0.00  0.00    +0.000 A 
ATOM     36  C   UNL     1      22.577   8.707  48.153  0.00  0.00    +0.000 A 
ATOM     37  C   UNL     1      22.258   7.494  47.549  0.00  0.00    +0.000 A 
ATOM     38  C   UNL     1      23.091   6.377  47.710  0.00  0.00    +0.000 A 
ATOM     39  C   UNL     1      24.340   6.539  48.341  0.00  0.00    +0.000 A 
BRANCH  33  40
ATOM     40  C   UNL     1      26.842   8.757  49.778  0.00  0.00    +0.000 C 
BRANCH  40  41
ATOM     41  C   UNL     1      27.964   9.210  48.892  0.00  0.00    +0.000 A 
ATOM     42  C   UNL     1      29.272   9.260  49.386  0.00  0.00    +0.000 A 
ATOM     43  C   UNL     1      30.324   9.647  48.564  0.00  0.00    +0.000 A 
ATOM     44  C   UNL     1      30.079   9.989  47.237  0.00  0.00    +0.000 A 
ATOM     45  C   UNL     1      28.777   9.982  46.744  0.00  0.00    +0.000 A 
ATOM     46  C   UNL     1      27.719   9.603  47.569  0.00  0.00    +0.000 A 
ENDBRANCH  40  41
ENDBRANCH  33  40
ENDBRANCH  30  31
ENDBRANCH   5  29
TORSDOF 9
ENDMDL
MODEL 4
REMARK VINA RESULT:    -8.725      5.190      9.132
REMARK INTER + INTRA:         -14.933
REMARK INTER:                 -13.428
REMARK INTRA:                  -1.505
REMARK UNBOUND:                -1.618
REMARK  Name = 
REMARK  11 active torsions:
REMARK  status: ('A' for Active; 'I' for Inactive)
REMARK    1  A    between atoms: C_1  and  N_2
REMARK    2  A    between atoms: N_2  and  C_3
REMARK    3  A    between atoms: N_2  and  C_4
REMARK    4  A    between atoms: C_4  and  C_5
REMARK    5  A    between atoms: C_6  and  C_7
REMARK    6  A    between atoms: N_9  and  C_10
REMARK    7  A    between atoms: C_14  and  N_15
REMARK    8  A    between atoms: N_19  and  N_20
REMARK    9  A    between atoms: C_21  and  C_22
REMARK   10  A    between atoms: N_24  and  C_25
REMARK   11  A    between atoms: C_25  and  C_26
REMARK                            x       y       z     vdW  Elec       q    Type
REMARK                         _______ _______ _______ _____ _____    ______ ____
ROOT
ATOM      1  N   UNL     1      12.790   0.458  53.182  0.00  0.00    +0.000 N 
ATOM      2  C   UNL     1      13.937  -0.280  52.773  0.00  0.00    +0.000 A 
ATOM      3  N   UNL     1      15.140   0.330  52.806  0.00  0.00    +0.000 NA
ATOM      4  C   UNL     1      16.219  -0.341  52.383  0.00  0.00    +0.000 A 
ATOM      5  N   UNL     1      17.404   0.395  52.378  0.00  0.00    +0.000 N 
ATOM      6  N   UNL     1      16.186  -1.605  51.949  0.00  0.00    +0.000 NA
ATOM      7  C   UNL     1      15.002  -2.236  52.028  0.00  0.00    +0.000 A 
ATOM      8  C   UNL     1      13.843  -1.621  52.444  0.00  0.00    +0.000 A 
ATOM      9 CL   UNL     1      12.367  -2.503  52.486  0.00  0.00    +0.000 Cl
ATOM     10  H   UNL     1      12.005  -0.038  53.507  0.00  0.00    +0.000 HD
ATOM     11  H   UNL     1      17.395   1.280  52.807  0.00  0.00    +0.000 HD
ENDROOT
BRANCH   1  16
ATOM     12  C   UNL     1      12.667   4.001  51.930  0.00  0.00    +0.000 A 
ATOM     13  C   UNL     1      12.495   4.667  53.144  0.00  0.00    +0.000 A 
ATOM     14  C   UNL     1      12.431   3.954  54.343  0.00  0.00    +0.000 A 
ATOM     15  C   UNL     1      12.547   2.565  54.340  0.00  0.00    +0.000 A 
ATOM     16  C   UNL     1      12.727   1.875  53.140  0.00  0.00    +0.000 A 
ATOM     17  C   UNL     1      12.725   2.600  51.934  0.00  0.00    +0.000 A 
BRANCH  12  20
ATOM     18  C   UNL     1      13.963   4.767  49.945  0.00  0.00    +0.000 C 
ATOM     19  O   UNL     1      15.059   4.293  50.224  0.00  0.00    +0.000 OA
ATOM     20  N   UNL     1      12.803   4.666  50.688  0.00  0.00    +0.000 N 
ATOM     21  H   UNL     1      11.998   5.097  50.320  0.00  0.00    +0.000 HD
BRANCH  18  23
ATOM     22  C   UNL     1      12.887   6.549  48.646  0.00  0.00    +0.000 C 
ATOM     23  C   UNL     1      13.770   5.535  48.683  0.00  0.00    +0.000 C 
BRANCH  22  24
ATOM     24  C   UNL     1      12.452   7.319  47.430  0.00  0.00    +0.000 C 
BRANCH  24  26
ATOM     25  C   UNL     1      13.360   8.953  45.883  0.00  0.00    +0.000 C 
ATOM     26  N   UNL     1      13.057   8.655  47.290  0.00  0.00    +0.000 N 
ATOM     27  C   UNL     1      12.127   9.672  47.795  0.00  0.00    +0.000 C 
ATOM     28  H   UNL     1      13.924   8.666  47.825  0.00  0.00    +0.000 HD
ENDBRANCH  24  26
ENDBRANCH  22  24
ENDBRANCH  18  23
ENDBRANCH  12  20
ENDBRANCH   1  16
BRANCH   5  29
ATOM     29  N   UNL     1      18.565  -0.025  51.822  0.00  0.00    +0.000 NA
ATOM     30  C   UNL     1      19.124   0.757  50.949  0.00  0.00    +0.000 C 
BRANCH  30  31
ATOM     31  C   UNL     1      20.552   0.591  50.785  0.00  0.00    +0.000 A 
ATOM     32  C   UNL     1      21.348   0.194  51.841  0.00  0.00    +0.000 A 
ATOM     33  N   UNL     1      22.399   1.072  51.816  0.00  0.00    +0.000 N 
ATOM     34  C   UNL     1      22.493   1.654  50.570  0.00  0.00    +0.000 A 
ATOM     35  C   UNL     1      23.374   2.612  50.053  0.00  0.00    +0.000 A 
ATOM     36  C   UNL     1      23.349   2.835  48.676  0.00  0.00    +0.000 A 
ATOM     37  C   UNL     1      22.435   2.173  47.862  0.00  0.00    +0.000 A 
ATOM     38  C   UNL     1      21.421   1.384  48.424  0.00  0.00    +0.000 A 
ATOM     39  C   UNL     1      21.442   1.126  49.810  0.00  0.00    +0.000 A 
BRANCH  33  40
ATOM     40  C   UNL     1      23.160   1.401  53.006  0.00  0.00    +0.000 C 
BRANCH  40  41
ATOM     41  C   UNL     1      24.550   0.843  52.933  0.00  0.00    +0.000 A 
ATOM     42  C   UNL     1      24.769  -0.524  53.133  0.00  0.00    +0.000 A 
ATOM     43  C   UNL     1      26.049  -1.056  53.034  0.00  0.00    +0.000 A 
ATOM     44  C   UNL     1      27.126  -0.227  52.736  0.00  0.00    +0.000 A 
ATOM     45  C   UNL     1      26.928   1.142  52.574  0.00  0.00    +0.000 A 
ATOM     46  C   UNL     1      25.646   1.680  52.681  0.00  0.00    +0.000 A 
ENDBRANCH  40  41
ENDBRANCH  33  40
ENDBRANCH  30  31
ENDBRANCH   5  29
TORSDOF 9
ENDMDL
MODEL 5
REMARK VINA RESULT:    -8.642      2.656      5.751
REMARK INTER + INTRA:         -14.807
REMARK INTER:                 -13.779
REMARK INTRA:                  -1.028
REMARK UNBOUND:                -1.618
REMARK  Name = 
REMARK  11 active torsions:
REMARK  status: ('A' for Active; 'I' for Inactive)
REMARK    1  A    between atoms: C_1  and  N_2
REMARK    2  A    between atoms: N_2  and  C_3
REMARK    3  A    between atoms: N_2  and  C_4
REMARK    4  A    between atoms: C_4  and  C_5
REMARK    5  A    between atoms: C_6  and  C_7
REMARK    6  A    between atoms: N_9  and  C_10
REMARK    7  A    between atoms: C_14  and  N_15
REMARK    8  A    between atoms: N_19  and  N_20
REMARK    9  A    between atoms: C_21  and  C_22
REMARK   10  A    between atoms: N_24  and  C_25
REMARK   11  A    between atoms: C_25  and  C_26
REMARK                            x       y       z     vdW  Elec       q    Type
REMARK                         _______ _______ _______ _____ _____    ______ ____
ROOT
ATOM      1  N   UNL     1      20.022   1.458  50.081  0.00  0.00    +0.000 N 
ATOM      2  C   UNL     1      20.838   2.578  49.753  0.00  0.00    +0.000 A 
ATOM      3  N   UNL     1      22.099   2.619  50.234  0.00  0.00    +0.000 NA
ATOM      4  C   UNL     1      22.860   3.688  49.967  0.00  0.00    +0.000 A 
ATOM      5  N   UNL     1      24.117   3.680  50.572  0.00  0.00    +0.000 N 
ATOM      6  N   UNL     1      22.456   4.720  49.219  0.00  0.00    +0.000 NA
ATOM      7  C   UNL     1      21.242   4.614  48.653  0.00  0.00    +0.000 A 
ATOM      8  C   UNL     1      20.393   3.554  48.879  0.00  0.00    +0.000 A 
ATOM      9 CL   UNL     1      18.844   3.518  48.132  0.00  0.00    +0.000 Cl
ATOM     10  H   UNL     1      19.279   1.228  49.480  0.00  0.00    +0.000 HD
ATOM     11  H   UNL     1      24.404   2.853  51.020  0.00  0.00    +0.000 HD
ENDROOT
BRANCH   1  16
ATOM     12  C   UNL     1      21.686  -0.486  52.836  0.00  0.00    +0.000 A 
ATOM     13  C   UNL     1      20.560  -0.829  53.586  0.00  0.00    +0.000 A 
ATOM     14  C   UNL     1      19.286  -0.429  53.179  0.00  0.00    +0.000 A 
ATOM     15  C   UNL     1      19.123   0.312  52.010  0.00  0.00    +0.000 A 
ATOM     16  C   UNL     1      20.232   0.661  51.237  0.00  0.00    +0.000 A 
ATOM     17  C   UNL     1      21.516   0.307  51.693  0.00  0.00    +0.000 A 
BRANCH  12  20
ATOM     18  C   UNL     1      24.141  -0.145  53.079  0.00  0.00    +0.000 C 
ATOM     19  O   UNL     1      24.217   1.029  52.733  0.00  0.00    +0.000 OA
ATOM     20  N   UNL     1      22.996  -0.913  53.157  0.00  0.00    +0.000 N 
ATOM     21  H   UNL     1      23.102  -1.842  53.464  0.00  0.00    +0.000 HD
BRANCH  18  23
ATOM     22  C   UNL     1      26.570  -0.492  53.052  0.00  0.00    +0.000 C 
ATOM     23  C   UNL     1      25.363  -0.893  53.488  0.00  0.00    +0.000 C 
BRANCH  22  24
ATOM     24  C   UNL     1      27.876  -1.213  53.232  0.00  0.00    +0.000 C 
BRANCH  24  26
ATOM     25  C   UNL     1      30.195  -0.787  53.807  0.00  0.00    +0.000 C 
ATOM     26  N   UNL     1      28.794  -0.607  54.212  0.00  0.00    +0.000 N 
ATOM     27  C   UNL     1      28.518   0.830  54.322  0.00  0.00    +0.000 C 
ATOM     28  H   UNL     1      28.647  -1.069  55.109  0.00  0.00    +0.000 HD
ENDBRANCH  24  26
ENDBRANCH  22  24
ENDBRANCH  18  23
ENDBRANCH  12  20
ENDBRANCH   1  16
BRANCH   5  29
ATOM     29  N   UNL     1      24.968   4.733  50.586  0.00  0.00    +0.000 NA
ATOM     30  C   UNL     1      25.700   4.919  49.530  0.00  0.00    +0.000 C 
BRANCH  30  31
ATOM     31  C   UNL     1      26.166   6.273  49.324  0.00  0.00    +0.000 A 
ATOM     32  C   UNL     1      25.331   7.353  49.535  0.00  0.00    +0.000 A 
ATOM     33  N   UNL     1      25.497   8.129  48.418  0.00  0.00    +0.000 N 
ATOM     34  C   UNL     1      26.684   7.805  47.796  0.00  0.00    +0.000 A 
ATOM     35  C   UNL     1      27.291   8.292  46.632  0.00  0.00    +0.000 A 
ATOM     36  C   UNL     1      28.610   7.915  46.385  0.00  0.00    +0.000 A 
ATOM     37  C   UNL     1      29.272   7.034  47.234  0.00  0.00    +0.000 A 
ATOM     38  C   UNL     1      28.581   6.389  48.270  0.00  0.00    +0.000 A 
ATOM     39  C   UNL     1      27.255   6.773  48.553  0.00  0.00    +0.000 A 
BRANCH  33  40
ATOM     40  C   UNL     1      24.465   9.028  47.940  0.00  0.00    +0.000 C 
BRANCH  40  41
ATOM     41  C   UNL     1      23.785   8.476  46.723  0.00  0.00    +0.000 A 
ATOM     42  C   UNL     1      23.301   7.163  46.724  0.00  0.00    +0.000 A 
ATOM     43  C   UNL     1      22.640   6.653  45.613  0.00  0.00    +0.000 A 
ATOM     44  C   UNL     1      22.457   7.449  44.487  0.00  0.00    +0.000 A 
ATOM     45  C   UNL     1      22.970   8.744  44.457  0.00  0.00    +0.000 A 
ATOM     46  C   UNL     1      23.640   9.256  45.567  0.00  0.00    +0.000 A 
ENDBRANCH  40  41
ENDBRANCH  33  40
ENDBRANCH  30  31
ENDBRANCH   5  29
TORSDOF 9
ENDMDL
MODEL 6
REMARK VINA RESULT:    -8.589      3.803      9.197
REMARK INTER + INTRA:         -14.726
REMARK INTER:                 -13.042
REMARK INTRA:                  -1.684
REMARK UNBOUND:                -1.618
REMARK  Name = 
REMARK  11 active torsions:
REMARK  status: ('A' for Active; 'I' for Inactive)
REMARK    1  A    between atoms: C_1  and  N_2
REMARK    2  A    between atoms: N_2  and  C_3
REMARK    3  A    between atoms: N_2  and  C_4
REMARK    4  A    between atoms: C_4  and  C_5
REMARK    5  A    between atoms: C_6  and  C_7
REMARK    6  A    between atoms: N_9  and  C_10
REMARK    7  A    between atoms: C_14  and  N_15
REMARK    8  A    between atoms: N_19  and  N_20
REMARK    9  A    between atoms: C_21  and  C_22
REMARK   10  A    between atoms: N_24  and  C_25
REMARK   11  A    between atoms: C_25  and  C_26
REMARK                            x       y       z     vdW  Elec       q    Type
REMARK                         _______ _______ _______ _____ _____    ______ ____
ROOT
ATOM      1  N   UNL     1      23.963  -0.043  53.129  0.00  0.00    +0.000 N 
ATOM      2  C   UNL     1      22.563  -0.281  53.217  0.00  0.00    +0.000 A 
ATOM      3  N   UNL     1      21.779   0.102  52.187  0.00  0.00    +0.000 NA
ATOM      4  C   UNL     1      20.455  -0.078  52.277  0.00  0.00    +0.000 A 
ATOM      5  N   UNL     1      19.719   0.421  51.202  0.00  0.00    +0.000 N 
ATOM      6  N   UNL     1      19.852  -0.647  53.327  0.00  0.00    +0.000 NA
ATOM      7  C   UNL     1      20.653  -1.125  54.294  0.00  0.00    +0.000 A 
ATOM      8  C   UNL     1      22.022  -0.978  54.284  0.00  0.00    +0.000 A 
ATOM      9 CL   UNL     1      22.964  -1.600  55.581  0.00  0.00    +0.000 Cl
ATOM     10  H   UNL     1      24.569  -0.611  53.658  0.00  0.00    +0.000 HD
ATOM     11  H   UNL     1      20.216   0.729  50.411  0.00  0.00    +0.000 HD
ENDROOT
BRANCH   1  16
ATOM     12  C   UNL     1      24.383   3.088  51.092  0.00  0.00    +0.000 A 
ATOM     13  C   UNL     1      25.743   2.989  50.796  0.00  0.00    +0.000 A 
ATOM     14  C   UNL     1      26.493   1.905  51.257  0.00  0.00    +0.000 A 
ATOM     15  C   UNL     1      25.887   0.903  52.013  0.00  0.00    +0.000 A 
ATOM     16  C   UNL     1      24.526   0.974  52.316  0.00  0.00    +0.000 A 
ATOM     17  C   UNL     1      23.796   2.104  51.900  0.00  0.00    +0.000 A 
BRANCH  12  20
ATOM     18  C   UNL     1      23.621   5.457  50.962  0.00  0.00    +0.000 C 
ATOM     19  O   UNL     1      24.413   5.967  51.747  0.00  0.00    +0.000 OA
ATOM     20  N   UNL     1      23.552   4.125  50.603  0.00  0.00    +0.000 N 
ATOM     21  H   UNL     1      22.861   3.874  49.948  0.00  0.00    +0.000 HD
BRANCH  18  23
ATOM     22  C   UNL     1      21.295   6.097  50.517  0.00  0.00    +0.000 C 
ATOM     23  C   UNL     1      22.602   6.291  50.266  0.00  0.00    +0.000 C 
BRANCH  22  24
ATOM     24  C   UNL     1      20.138   6.730  49.795  0.00  0.00    +0.000 C 
BRANCH  24  26
ATOM     25  C   UNL     1      19.546   5.268  47.951  0.00  0.00    +0.000 C 
ATOM     26  N   UNL     1      19.140   5.784  49.266  0.00  0.00    +0.000 N 
ATOM     27  C   UNL     1      18.994   4.654  50.191  0.00  0.00    +0.000 C 
ATOM     28  H   UNL     1      18.255   6.282  49.168  0.00  0.00    +0.000 HD
ENDBRANCH  24  26
ENDBRANCH  22  24
ENDBRANCH  18  23
ENDBRANCH  12  20
ENDBRANCH   1  16
BRANCH   5  29
ATOM     29  N   UNL     1      18.369   0.509  51.172  0.00  0.00    +0.000 NA
ATOM     30  C   UNL     1      17.810   0.692  50.015  0.00  0.00    +0.000 C 
BRANCH  30  31
ATOM     31  C   UNL     1      16.437   0.251  49.907  0.00  0.00    +0.000 A 
ATOM     32  C   UNL     1      15.584   0.309  50.992  0.00  0.00    +0.000 A 
ATOM     33  N   UNL     1      14.989  -0.925  51.017  0.00  0.00    +0.000 N 
ATOM     34  C   UNL     1      15.102  -1.524  49.781  0.00  0.00    +0.000 A 
ATOM     35  C   UNL     1      14.679  -2.772  49.307  0.00  0.00    +0.000 A 
ATOM     36  C   UNL     1      14.746  -2.998  47.933  0.00  0.00    +0.000 A 
ATOM     37  C   UNL     1      15.277  -2.037  47.076  0.00  0.00    +0.000 A 
ATOM     38  C   UNL     1      15.893  -0.887  47.591  0.00  0.00    +0.000 A 
ATOM     39  C   UNL     1      15.815  -0.628  48.974  0.00  0.00    +0.000 A 
BRANCH  33  40
ATOM     40  C   UNL     1      14.472  -1.509  52.240  0.00  0.00    +0.000 C 
BRANCH  40  41
ATOM     41  C   UNL     1      15.343  -2.635  52.713  0.00  0.00    +0.000 A 
ATOM     42  C   UNL     1      14.821  -3.930  52.816  0.00  0.00    +0.000 A 
ATOM     43  C   UNL     1      15.628  -4.986  53.222  0.00  0.00    +0.000 A 
ATOM     44  C   UNL     1      16.966  -4.760  53.530  0.00  0.00    +0.000 A 
ATOM     45  C   UNL     1      17.487  -3.470  53.470  0.00  0.00    +0.000 A 
ATOM     46  C   UNL     1      16.678  -2.407  53.072  0.00  0.00    +0.000 A 
ENDBRANCH  40  41
ENDBRANCH  33  40
ENDBRANCH  30  31
ENDBRANCH   5  29
TORSDOF 9
ENDMDL
MODEL 7
REMARK VINA RESULT:    -8.516      2.986      7.876
REMARK INTER + INTRA:         -14.614
REMARK INTER:                 -14.075
REMARK INTRA:                  -0.539
REMARK UNBOUND:                -1.618
REMARK  Name = 
REMARK  11 active torsions:
REMARK  status: ('A' for Active; 'I' for Inactive)
REMARK    1  A    between atoms: C_1  and  N_2
REMARK    2  A    between atoms: N_2  and  C_3
REMARK    3  A    between atoms: N_2  and  C_4
REMARK    4  A    between atoms: C_4  and  C_5
REMARK    5  A    between atoms: C_6  and  C_7
REMARK    6  A    between atoms: N_9  and  C_10
REMARK    7  A    between atoms: C_14  and  N_15
REMARK    8  A    between atoms: N_19  and  N_20
REMARK    9  A    between atoms: C_21  and  C_22
REMARK   10  A    between atoms: N_24  and  C_25
REMARK   11  A    between atoms: C_25  and  C_26
REMARK                            x       y       z     vdW  Elec       q    Type
REMARK                         _______ _______ _______ _____ _____    ______ ____
ROOT
ATOM      1  N   UNL     1      24.365  -0.429  53.282  0.00  0.00    +0.000 N 
ATOM      2  C   UNL     1      23.053   0.116  53.186  0.00  0.00    +0.000 A 
ATOM      3  N   UNL     1      22.863   1.207  52.416  0.00  0.00    +0.000 NA
ATOM      4  C   UNL     1      21.642   1.753  52.354  0.00  0.00    +0.000 A 
ATOM      5  N   UNL     1      21.558   2.924  51.600  0.00  0.00    +0.000 N 
ATOM      6  N   UNL     1      20.574   1.262  52.993  0.00  0.00    +0.000 NA
ATOM      7  C   UNL     1      20.753   0.112  53.663  0.00  0.00    +0.000 A 
ATOM      8  C   UNL     1      21.974  -0.513  53.784  0.00  0.00    +0.000 A 
ATOM      9 CL   UNL     1      22.110  -1.970  54.687  0.00  0.00    +0.000 Cl
ATOM     10  H   UNL     1      24.462  -1.380  53.514  0.00  0.00    +0.000 HD
ATOM     11  H   UNL     1      22.343   3.180  51.064  0.00  0.00    +0.000 HD
ENDROOT
BRANCH   1  16
ATOM     12  C   UNL     1      26.735   2.204  52.023  0.00  0.00    +0.000 A 
ATOM     13  C   UNL     1      27.873   1.854  52.751  0.00  0.00    +0.000 A 
ATOM     14  C   UNL     1      27.850   0.768  53.628  0.00  0.00    +0.000 A 
ATOM     15  C   UNL     1      26.688   0.013  53.780  0.00  0.00    +0.000 A 
ATOM     16  C   UNL     1      25.538   0.337  53.057  0.00  0.00    +0.000 A 
ATOM     17  C   UNL     1      25.556   1.473  52.226  0.00  0.00    +0.000 A 
BRANCH  12  20
ATOM     18  C   UNL     1      25.639   3.592  50.269  0.00  0.00    +0.000 C 
ATOM     19  O   UNL     1      24.534   3.059  50.250  0.00  0.00    +0.000 OA
ATOM     20  N   UNL     1      26.709   3.252  51.072  0.00  0.00    +0.000 N 
ATOM     21  H   UNL     1      27.530   3.787  50.974  0.00  0.00    +0.000 HD
BRANCH  18  23
ATOM     22  C   UNL     1      27.198   4.957  48.955  0.00  0.00    +0.000 C 
ATOM     23  C   UNL     1      25.937   4.745  49.374  0.00  0.00    +0.000 C 
BRANCH  22  24
ATOM     24  C   UNL     1      27.702   6.148  48.189  0.00  0.00    +0.000 C 
BRANCH  24  26
ATOM     25  C   UNL     1      29.801   7.354  48.366  0.00  0.00    +0.000 C 
ATOM     26  N   UNL     1      28.487   7.112  48.980  0.00  0.00    +0.000 N 
ATOM     27  C   UNL     1      27.764   8.386  49.061  0.00  0.00    +0.000 C 
ATOM     28  H   UNL     1      28.624   6.718  49.911  0.00  0.00    +0.000 HD
ENDBRANCH  24  26
ENDBRANCH  22  24
ENDBRANCH  18  23
ENDBRANCH  12  20
ENDBRANCH   1  16
BRANCH   5  29
ATOM     29  N   UNL     1      20.473   3.731  51.554  0.00  0.00    +0.000 NA
ATOM     30  C   UNL     1      20.063   4.111  50.382  0.00  0.00    +0.000 C 
BRANCH  30  31
ATOM     31  C   UNL     1      18.668   4.482  50.298  0.00  0.00    +0.000 A 
ATOM     32  C   UNL     1      17.789   4.180  51.319  0.00  0.00    +0.000 A 
ATOM     33  N   UNL     1      16.707   3.632  50.679  0.00  0.00    +0.000 N 
ATOM     34  C   UNL     1      16.713   4.003  49.352  0.00  0.00    +0.000 A 
ATOM     35  C   UNL     1      15.847   3.696  48.294  0.00  0.00    +0.000 A 
ATOM     36  C   UNL     1      15.998   4.413  47.108  0.00  0.00    +0.000 A 
ATOM     37  C   UNL     1      17.017   5.351  46.964  0.00  0.00    +0.000 A 
ATOM     38  C   UNL     1      18.003   5.488  47.952  0.00  0.00    +0.000 A 
ATOM     39  C   UNL     1      17.856   4.792  49.168  0.00  0.00    +0.000 A 
BRANCH  33  40
ATOM     40  C   UNL     1      15.819   2.690  51.331  0.00  0.00    +0.000 C 
BRANCH  40  41
ATOM     41  C   UNL     1      14.650   3.389  51.958  0.00  0.00    +0.000 A 
ATOM     42  C   UNL     1      14.678   3.720  53.318  0.00  0.00    +0.000 A 
ATOM     43  C   UNL     1      13.614   4.398  53.901  0.00  0.00    +0.000 A 
ATOM     44  C   UNL     1      12.510   4.753  53.132  0.00  0.00    +0.000 A 
ATOM     45  C   UNL     1      12.452   4.394  51.787  0.00  0.00    +0.000 A 
ATOM     46  C   UNL     1      13.514   3.706  51.201  0.00  0.00    +0.000 A 
ENDBRANCH  40  41
ENDBRANCH  33  40
ENDBRANCH  30  31
ENDBRANCH   5  29
TORSDOF 9
ENDMDL
MODEL 8
REMARK VINA RESULT:    -8.514      1.502      2.230
REMARK INTER + INTRA:         -14.612
REMARK INTER:                 -13.278
REMARK INTRA:                  -1.334
REMARK UNBOUND:                -1.618
REMARK  Name = 
REMARK  11 active torsions:
REMARK  status: ('A' for Active; 'I' for Inactive)
REMARK    1  A    between atoms: C_1  and  N_2
REMARK    2  A    between atoms: N_2  and  C_3
REMARK    3  A    between atoms: N_2  and  C_4
REMARK    4  A    between atoms: C_4  and  C_5
REMARK    5  A    between atoms: C_6  and  C_7
REMARK    6  A    between atoms: N_9  and  C_10
REMARK    7  A    between atoms: C_14  and  N_15
REMARK    8  A    between atoms: N_19  and  N_20
REMARK    9  A    between atoms: C_21  and  C_22
REMARK   10  A    between atoms: N_24  and  C_25
REMARK   11  A    between atoms: C_25  and  C_26
REMARK                            x       y       z     vdW  Elec       q    Type
REMARK                         _______ _______ _______ _____ _____    ______ ____
ROOT
ATOM      1  N   UNL     1      24.047  -0.734  53.460  0.00  0.00    +0.000 N 
ATOM      2  C   UNL     1      24.914   0.230  52.872  0.00  0.00    +0.000 A 
ATOM      3  N   UNL     1      24.465   1.493  52.721  0.00  0.00    +0.000 NA
ATOM      4  C   UNL     1      25.257   2.397  52.130  0.00  0.00    +0.000 A 
ATOM      5  N   UNL     1      24.680   3.653  51.945  0.00  0.00    +0.000 N 
ATOM      6  N   UNL     1      26.495   2.132  51.698  0.00  0.00    +0.000 NA
ATOM      7  C   UNL     1      26.971   0.902  51.956  0.00  0.00    +0.000 A 
ATOM      8  C   UNL     1      26.224  -0.088  52.553  0.00  0.00    +0.000 A 
ATOM      9 CL   UNL     1      26.910  -1.643  52.818  0.00  0.00    +0.000 Cl
ATOM     10  H   UNL     1      24.447  -1.518  53.901  0.00  0.00    +0.000 HD
ATOM     11  H   UNL     1      23.812   3.826  52.377  0.00  0.00    +0.000 HD
ENDROOT
BRANCH   1  16
ATOM     12  C   UNL     1      20.555   0.310  52.538  0.00  0.00    +0.000 A 
ATOM     13  C   UNL     1      19.833  -0.522  53.395  0.00  0.00    +0.000 A 
ATOM     14  C   UNL     1      20.495  -1.398  54.259  0.00  0.00    +0.000 A 
ATOM     15  C   UNL     1      21.888  -1.444  54.281  0.00  0.00    +0.000 A 
ATOM     16  C   UNL     1      22.633  -0.617  53.439  0.00  0.00    +0.000 A 
ATOM     17  C   UNL     1      21.954   0.214  52.528  0.00  0.00    +0.000 A 
BRANCH  12  20
ATOM     18  C   UNL     1      20.577   2.351  51.110  0.00  0.00    +0.000 C 
ATOM     19  O   UNL     1      21.757   2.667  51.229  0.00  0.00    +0.000 OA
ATOM     20  N   UNL     1      19.950   1.264  51.686  0.00  0.00    +0.000 N 
ATOM     21  H   UNL     1      18.994   1.141  51.484  0.00  0.00    +0.000 HD
BRANCH  18  23
ATOM     22  C   UNL     1      18.474   3.565  50.760  0.00  0.00    +0.000 C 
ATOM     23  C   UNL     1      19.658   3.162  50.265  0.00  0.00    +0.000 C 
BRANCH  22  24
ATOM     24  C   UNL     1      17.367   4.245  50.004  0.00  0.00    +0.000 C 
BRANCH  24  26
ATOM     25  C   UNL     1      14.949   4.236  50.208  0.00  0.00    +0.000 C 
ATOM     26  N   UNL     1      16.215   4.659  50.823  0.00  0.00    +0.000 N 
ATOM     27  C   UNL     1      16.315   4.053  52.156  0.00  0.00    +0.000 C 
ATOM     28  H   UNL     1      16.227   5.677  50.891  0.00  0.00    +0.000 HD
ENDBRANCH  24  26
ENDBRANCH  22  24
ENDBRANCH  18  23
ENDBRANCH  12  20
ENDBRANCH   1  16
BRANCH   5  29
ATOM     29  N   UNL     1      25.229   4.650  51.212  0.00  0.00    +0.000 NA
ATOM     30  C   UNL     1      24.461   5.252  50.356  0.00  0.00    +0.000 C 
BRANCH  30  31
ATOM     31  C   UNL     1      24.856   6.597  50.000  0.00  0.00    +0.000 A 
ATOM     32  C   UNL     1      24.021   7.671  50.240  0.00  0.00    +0.000 A 
ATOM     33  N   UNL     1      24.024   8.368  49.060  0.00  0.00    +0.000 N 
ATOM     34  C   UNL     1      25.134   8.026  48.318  0.00  0.00    +0.000 A 
ATOM     35  C   UNL     1      25.576   8.441  47.056  0.00  0.00    +0.000 A 
ATOM     36  C   UNL     1      26.866   8.076  46.671  0.00  0.00    +0.000 A 
ATOM     37  C   UNL     1      27.655   7.272  47.489  0.00  0.00    +0.000 A 
ATOM     38  C   UNL     1      27.117   6.689  48.646  0.00  0.00    +0.000 A 
ATOM     39  C   UNL     1      25.826   7.064  49.066  0.00  0.00    +0.000 A 
BRANCH  33  40
ATOM     40  C   UNL     1      22.914   9.208  48.655  0.00  0.00    +0.000 C 
BRANCH  40  41
ATOM     41  C   UNL     1      21.648   8.412  48.532  0.00  0.00    +0.000 A 
ATOM     42  C   UNL     1      21.428   7.617  47.402  0.00  0.00    +0.000 A 
ATOM     43  C   UNL     1      20.273   6.850  47.293  0.00  0.00    +0.000 A 
ATOM     44  C   UNL     1      19.326   6.871  48.313  0.00  0.00    +0.000 A 
ATOM     45  C   UNL     1      19.515   7.690  49.424  0.00  0.00    +0.000 A 
ATOM     46  C   UNL     1      20.667   8.466  49.532  0.00  0.00    +0.000 A 
ENDBRANCH  40  41
ENDBRANCH  33  40
ENDBRANCH  30  31
ENDBRANCH   5  29
TORSDOF 9
ENDMDL
MODEL 9
REMARK VINA RESULT:    -8.449      1.508      2.296
REMARK INTER + INTRA:         -14.513
REMARK INTER:                 -12.974
REMARK INTRA:                  -1.539
REMARK UNBOUND:                -1.618
REMARK  Name = 
REMARK  11 active torsions:
REMARK  status: ('A' for Active; 'I' for Inactive)
REMARK    1  A    between atoms: C_1  and  N_2
REMARK    2  A    between atoms: N_2  and  C_3
REMARK    3  A    between atoms: N_2  and  C_4
REMARK    4  A    between atoms: C_4  and  C_5
REMARK    5  A    between atoms: C_6  and  C_7
REMARK    6  A    between atoms: N_9  and  C_10
REMARK    7  A    between atoms: C_14  and  N_15
REMARK    8  A    between atoms: N_19  and  N_20
REMARK    9  A    between atoms: C_21  and  C_22
REMARK   10  A    between atoms: N_24  and  C_25
REMARK   11  A    between atoms: C_25  and  C_26
REMARK                            x       y       z     vdW  Elec       q    Type
REMARK                         _______ _______ _______ _____ _____    ______ ____
ROOT
ATOM      1  N   UNL     1      23.922  -0.118  53.182  0.00  0.00    +0.000 N 
ATOM      2  C   UNL     1      24.921   0.721  52.612  0.00  0.00    +0.000 A 
ATOM      3  N   UNL     1      24.579   1.976  52.251  0.00  0.00    +0.000 NA
ATOM      4  C   UNL     1      25.500   2.758  51.674  0.00  0.00    +0.000 A 
ATOM      5  N   UNL     1      25.036   4.007  51.262  0.00  0.00    +0.000 N 
ATOM      6  N   UNL     1      26.765   2.381  51.455  0.00  0.00    +0.000 NA
ATOM      7  C   UNL     1      27.120   1.173  51.921  0.00  0.00    +0.000 A 
ATOM      8  C   UNL     1      26.237   0.302  52.520  0.00  0.00    +0.000 A 
ATOM      9 CL   UNL     1      26.779  -1.237  53.062  0.00  0.00    +0.000 Cl
ATOM     10  H   UNL     1      24.208  -0.858  53.765  0.00  0.00    +0.000 HD
ATOM     11  H   UNL     1      24.132   4.275  51.543  0.00  0.00    +0.000 HD
ENDROOT
BRANCH   1  16
ATOM     12  C   UNL     1      20.660   1.026  51.702  0.00  0.00    +0.000 A 
ATOM     13  C   UNL     1      19.779   0.287  52.492  0.00  0.00    +0.000 A 
ATOM     14  C   UNL     1      20.260  -0.561  53.492  0.00  0.00    +0.000 A 
ATOM     15  C   UNL     1      21.631  -0.671  53.719  0.00  0.00    +0.000 A 
ATOM     16  C   UNL     1      22.534   0.064  52.948  0.00  0.00    +0.000 A 
ATOM     17  C   UNL     1      22.039   0.864  51.902  0.00  0.00    +0.000 A 
BRANCH  12  20
ATOM     18  C   UNL     1      19.583   3.142  50.950  0.00  0.00    +0.000 C 
ATOM     19  O   UNL     1      19.269   3.608  52.040  0.00  0.00    +0.000 OA
ATOM     20  N   UNL     1      20.237   1.949  50.716  0.00  0.00    +0.000 N 
ATOM     21  H   UNL     1      20.426   1.719  49.778  0.00  0.00    +0.000 HD
BRANCH  18  23
ATOM     22  C   UNL     1      19.844   3.500  48.537  0.00  0.00    +0.000 C 
ATOM     23  C   UNL     1      19.276   3.883  49.694  0.00  0.00    +0.000 C 
BRANCH  22  24
ATOM     24  C   UNL     1      19.774   4.221  47.219  0.00  0.00    +0.000 C 
BRANCH  24  26
ATOM     25  C   UNL     1      22.131   4.570  47.682  0.00  0.00    +0.000 C 
ATOM     26  N   UNL     1      21.075   4.626  46.660  0.00  0.00    +0.000 N 
ATOM     27  C   UNL     1      21.440   3.726  45.559  0.00  0.00    +0.000 C 
ATOM     28  H   UNL     1      20.989   5.585  46.324  0.00  0.00    +0.000 HD
ENDBRANCH  24  26
ENDBRANCH  22  24
ENDBRANCH  18  23
ENDBRANCH  12  20
ENDBRANCH   1  16
BRANCH   5  29
ATOM     29  N   UNL     1      25.743   4.876  50.501  0.00  0.00    +0.000 NA
ATOM     30  C   UNL     1      25.079   5.599  49.651  0.00  0.00    +0.000 C 
BRANCH  30  31
ATOM     31  C   UNL     1      25.707   6.843  49.265  0.00  0.00    +0.000 A 
ATOM     32  C   UNL     1      24.973   8.009  49.163  0.00  0.00    +0.000 A 
ATOM     33  N   UNL     1      25.348   8.536  47.955  0.00  0.00    +0.000 N 
ATOM     34  C   UNL     1      26.557   8.000  47.566  0.00  0.00    +0.000 A 
ATOM     35  C   UNL     1      27.341   8.199  46.423  0.00  0.00    +0.000 A 
ATOM     36  C   UNL     1      28.632   7.673  46.426  0.00  0.00    +0.000 A 
ATOM     37  C   UNL     1      29.095   6.921  47.502  0.00  0.00    +0.000 A 
ATOM     38  C   UNL     1      28.225   6.550  48.538  0.00  0.00    +0.000 A 
ATOM     39  C   UNL     1      26.924   7.091  48.567  0.00  0.00    +0.000 A 
BRANCH  33  40
ATOM     40  C   UNL     1      24.479   9.408  47.188  0.00  0.00    +0.000 C 
BRANCH  40  41
ATOM     41  C   UNL     1      24.090   8.776  45.885  0.00  0.00    +0.000 A 
ATOM     42  C   UNL     1      24.474   9.367  44.676  0.00  0.00    +0.000 A 
ATOM     43  C   UNL     1      24.146   8.772  43.464  0.00  0.00    +0.000 A 
ATOM     44  C   UNL     1      23.429   7.580  43.446  0.00  0.00    +0.000 A 
ATOM     45  C   UNL     1      23.006   7.002  44.640  0.00  0.00    +0.000 A 
ATOM     46  C   UNL     1      23.326   7.601  45.858  0.00  0.00    +0.000 A 
ENDBRANCH  40  41
ENDBRANCH  33  40
ENDBRANCH  30  31
ENDBRANCH   5  29
TORSDOF 9
ENDMDL
