MODEL 1
REMARK VINA RESULT:    -9.731      0.000      0.000
REMARK INTER + INTRA:         -14.830
REMARK INTER:                 -13.713
REMARK INTRA:                  -1.117
REMARK UNBOUND:                -1.117
REMARK  Name = 
REMARK  8 active torsions:
REMARK  status: ('A' for Active; 'I' for Inactive)
REMARK    1  A    between atoms: C_1  and  O_2
REMARK    2  A    between atoms: O_2  and  C_3
REMARK    3  A    between atoms: C_9  and  N_10
REMARK    4  A    between atoms: N_10  and  C_11
REMARK    5  A    between atoms: C_21  and  N_22
REMARK    6  A    between atoms: C_23  and  C_25
REMARK    7  A    between atoms: C_27  and  C_28
REMARK    8  A    between atoms: C_28  and  N_29
REMARK                            x       y       z     vdW  Elec       q    Type
REMARK                         _______ _______ _______ _____ _____    ______ ____
ROOT
ATOM      1  C   UNL     1      22.997   3.105  48.977  0.00  0.00    +0.000 A 
ATOM      2  C   UNL     1      22.059   2.119  49.340  0.00  0.00    +0.000 A 
ATOM      3  C   UNL     1      22.149   1.407  50.527  0.00  0.00    +0.000 A 
ATOM      4  N   UNL     1      21.215   0.496  50.812  0.00  0.00    +0.000 NA
ATOM      5  C   UNL     1      21.348  -0.157  51.972  0.00  0.00    +0.000 A 
ATOM      6  N   UNL     1      22.341  -0.004  52.852  0.00  0.00    +0.000 NA
ATOM      7  C   UNL     1      23.288   0.903  52.550  0.00  0.00    +0.000 A 
ATOM      8  C   UNL     1      23.217   1.687  51.382  0.00  0.00    +0.000 A 
ATOM      9  C   UNL     1      24.157   2.682  51.019  0.00  0.00    +0.000 A 
ATOM     10  C   UNL     1      24.099   3.361  49.805  0.00  0.00    +0.000 A 
ENDROOT
BRANCH  10  11
ATOM     11  N   UNL     1      25.126   4.256  49.392  0.00  0.00    +0.000 N 
ATOM     12  C   UNL     1      26.495   4.025  49.439  0.00  0.00    +0.000 C 
ATOM     13  O   UNL     1      27.054   3.055  49.943  0.00  0.00    +0.000 OA
ATOM     14  H   UNL     1      24.836   5.127  49.036  0.00  0.00    +0.000 HD
BRANCH  12  15
ATOM     15  C   UNL     1      27.314   5.067  48.748  0.00  0.00    +0.000 C 
ATOM     16  F   UNL     1      28.504   4.650  48.263  0.00  0.00    +0.000 F 
ATOM     17  C   UNL     1      26.956   6.360  48.696  0.00  0.00    +0.000 C 
BRANCH  17  18
ATOM     18  C   UNL     1      27.865   7.457  48.228  0.00  0.00    +0.000 C 
BRANCH  18  19
ATOM     19  N   UNL     1      28.840   7.938  49.215  0.00  0.00    +0.000 N 
ATOM     20  C   UNL     1      28.730   9.383  49.516  0.00  0.00    +0.000 C 
ATOM     21  C   UNL     1      29.212  10.312  48.389  0.00  0.00    +0.000 C 
ATOM     22  O   UNL     1      30.552  10.003  47.983  0.00  0.00    +0.000 OA
ATOM     23  C   UNL     1      30.659   8.631  47.586  0.00  0.00    +0.000 C 
ATOM     24  C   UNL     1      30.223   7.689  48.726  0.00  0.00    +0.000 C 
ATOM     25  H   UNL     1      28.636   7.421  50.071  0.00  0.00    +0.000 HD
ENDBRANCH  18  19
ENDBRANCH  17  18
ENDBRANCH  12  15
ENDBRANCH  10  11
BRANCH   1  27
ATOM     26  C   UNL     1      21.810   3.392  46.976  0.00  0.00    +0.000 C 
ATOM     27  O   UNL     1      22.879   3.838  47.818  0.00  0.00    +0.000 OA
ENDBRANCH   1  27
BRANCH   7  28
ATOM     28  N   UNL     1      24.334   1.143  53.486  0.00  0.00    +0.000 N 
ATOM     29  H   UNL     1      24.143   1.773  54.216  0.00  0.00    +0.000 HD
BRANCH  28  30
ATOM     30  C   UNL     1      25.623   0.559  53.462  0.00  0.00    +0.000 A 
ATOM     31  C   UNL     1      25.867  -0.710  52.919  0.00  0.00    +0.000 A 
ATOM     32  C   UNL     1      27.168  -1.200  52.820  0.00  0.00    +0.000 A 
ATOM     33  C   UNL     1      28.233  -0.412  53.242  0.00  0.00    +0.000 A 
ATOM     34  F   UNL     1      29.478  -0.902  53.142  0.00  0.00    +0.000 F 
ATOM     35  C   UNL     1      28.010   0.870  53.743  0.00  0.00    +0.000 A 
ATOM     36 CL   UNL     1      29.326   1.862  54.241  0.00  0.00    +0.000 Cl
ATOM     37  C   UNL     1      26.709   1.362  53.834  0.00  0.00    +0.000 A 
ENDBRANCH  28  30
ENDBRANCH   7  28
TORSDOF 7
ENDMDL
MODEL 2
REMARK VINA RESULT:    -9.006      4.125      9.439
REMARK INTER + INTRA:         -13.808
REMARK INTER:                 -12.587
REMARK INTRA:                  -1.221
REMARK UNBOUND:                -1.117
REMARK  Name = 
REMARK  8 active torsions:
REMARK  status: ('A' for Active; 'I' for Inactive)
REMARK    1  A    between atoms: C_1  and  O_2
REMARK    2  A    between atoms: O_2  and  C_3
REMARK    3  A    between atoms: C_9  and  N_10
REMARK    4  A    between atoms: N_10  and  C_11
REMARK    5  A    between atoms: C_21  and  N_22
REMARK    6  A    between atoms: C_23  and  C_25
REMARK    7  A    between atoms: C_27  and  C_28
REMARK    8  A    between atoms: C_28  and  N_29
REMARK                            x       y       z     vdW  Elec       q    Type
REMARK                         _______ _______ _______ _____ _____    ______ ____
ROOT
ATOM      1  C   UNL     1      21.874   1.578  49.769  0.00  0.00    +0.000 A 
ATOM      2  C   UNL     1      22.734   2.519  49.168  0.00  0.00    +0.000 A 
ATOM      3  C   UNL     1      23.923   2.922  49.757  0.00  0.00    +0.000 A 
ATOM      4  N   UNL     1      24.695   3.809  49.122  0.00  0.00    +0.000 NA
ATOM      5  C   UNL     1      25.834   4.158  49.733  0.00  0.00    +0.000 A 
ATOM      6  N   UNL     1      26.251   3.727  50.926  0.00  0.00    +0.000 NA
ATOM      7  C   UNL     1      25.460   2.847  51.567  0.00  0.00    +0.000 A 
ATOM      8  C   UNL     1      24.267   2.368  50.992  0.00  0.00    +0.000 A 
ATOM      9  C   UNL     1      23.405   1.419  51.592  0.00  0.00    +0.000 A 
ATOM     10  C   UNL     1      22.186   1.051  51.030  0.00  0.00    +0.000 A 
ENDROOT
BRANCH  10  11
ATOM     11  N   UNL     1      21.267   0.204  51.710  0.00  0.00    +0.000 N 
ATOM     12  C   UNL     1      20.366   0.581  52.698  0.00  0.00    +0.000 C 
ATOM     13  O   UNL     1      20.284   1.687  53.227  0.00  0.00    +0.000 OA
ATOM     14  H   UNL     1      21.269  -0.747  51.454  0.00  0.00    +0.000 HD
BRANCH  12  15
ATOM     15  C   UNL     1      19.392  -0.488  53.078  0.00  0.00    +0.000 C 
ATOM     16  F   UNL     1      19.901  -1.519  53.786  0.00  0.00    +0.000 F 
ATOM     17  C   UNL     1      18.115  -0.492  52.661  0.00  0.00    +0.000 C 
BRANCH  17  18
ATOM     18  C   UNL     1      17.193  -1.663  52.822  0.00  0.00    +0.000 C 
BRANCH  18  19
ATOM     19  N   UNL     1      15.759  -1.347  52.813  0.00  0.00    +0.000 N 
ATOM     20  C   UNL     1      14.883  -2.528  52.644  0.00  0.00    +0.000 C 
ATOM     21  C   UNL     1      14.893  -3.138  51.232  0.00  0.00    +0.000 C 
ATOM     22  O   UNL     1      14.587  -2.161  50.230  0.00  0.00    +0.000 OA
ATOM     23  C   UNL     1      15.491  -1.054  50.305  0.00  0.00    +0.000 C 
ATOM     24  C   UNL     1      15.453  -0.404  51.703  0.00  0.00    +0.000 C 
ATOM     25  H   UNL     1      15.566  -0.939  53.728  0.00  0.00    +0.000 HD
ENDBRANCH  18  19
ENDBRANCH  17  18
ENDBRANCH  12  15
ENDBRANCH  10  11
BRANCH   1  27
ATOM     26  C   UNL     1      19.956   2.218  48.584  0.00  0.00    +0.000 C 
ATOM     27  O   UNL     1      20.717   1.151  49.161  0.00  0.00    +0.000 OA
ENDBRANCH   1  27
BRANCH   7  28
ATOM     28  N   UNL     1      25.893   2.315  52.814  0.00  0.00    +0.000 N 
ATOM     29  H   UNL     1      25.385   2.583  53.614  0.00  0.00    +0.000 HD
BRANCH  28  30
ATOM     30  C   UNL     1      26.985   1.438  53.013  0.00  0.00    +0.000 A 
ATOM     31  C   UNL     1      28.188   1.851  53.603  0.00  0.00    +0.000 A 
ATOM     32  C   UNL     1      29.197   0.930  53.876  0.00  0.00    +0.000 A 
ATOM     33  C   UNL     1      28.998  -0.414  53.580  0.00  0.00    +0.000 A 
ATOM     34  F   UNL     1      29.982  -1.286  53.846  0.00  0.00    +0.000 F 
ATOM     35  C   UNL     1      27.791  -0.848  53.033  0.00  0.00    +0.000 A 
ATOM     36 CL   UNL     1      27.528  -2.514  52.690  0.00  0.00    +0.000 Cl
ATOM     37  C   UNL     1      26.779   0.074  52.768  0.00  0.00    +0.000 A 
ENDBRANCH  28  30
ENDBRANCH   7  28
TORSDOF 7
ENDMDL
MODEL 3
REMARK VINA RESULT:    -8.946      1.776      2.193
REMARK INTER + INTRA:         -13.724
REMARK INTER:                 -12.618
REMARK INTRA:                  -1.105
REMARK UNBOUND:                -1.117
REMARK  Name = 
REMARK  8 active torsions:
REMARK  status: ('A' for Active; 'I' for Inactive)
REMARK    1  A    between atoms: C_1  and  O_2
REMARK    2  A    between atoms: O_2  and  C_3
REMARK    3  A    between atoms: C_9  and  N_10
REMARK    4  A    between atoms: N_10  and  C_11
REMARK    5  A    between atoms: C_21  and  N_22
REMARK    6  A    between atoms: C_23  and  C_25
REMARK    7  A    between atoms: C_27  and  C_28
REMARK    8  A    between atoms: C_28  and  N_29
REMARK                            x       y       z     vdW  Elec       q    Type
REMARK                         _______ _______ _______ _____ _____    ______ ____
ROOT
ATOM      1  C   UNL     1      22.708   2.163  49.995  0.00  0.00    +0.000 A 
ATOM      2  C   UNL     1      22.146   1.110  50.742  0.00  0.00    +0.000 A 
ATOM      3  C   UNL     1      22.728   0.632  51.907  0.00  0.00    +0.000 A 
ATOM      4  N   UNL     1      22.132  -0.362  52.572  0.00  0.00    +0.000 NA
ATOM      5  C   UNL     1      22.733  -0.779  53.693  0.00  0.00    +0.000 A 
ATOM      6  N   UNL     1      23.884  -0.316  54.188  0.00  0.00    +0.000 NA
ATOM      7  C   UNL     1      24.488   0.673  53.503  0.00  0.00    +0.000 A 
ATOM      8  C   UNL     1      23.914   1.227  52.342  0.00  0.00    +0.000 A 
ATOM      9  C   UNL     1      24.475   2.290  51.592  0.00  0.00    +0.000 A 
ATOM     10  C   UNL     1      23.923   2.736  50.395  0.00  0.00    +0.000 A 
ENDROOT
BRANCH  10  11
ATOM     11  N   UNL     1      24.571   3.708  49.582  0.00  0.00    +0.000 N 
ATOM     12  C   UNL     1      24.660   5.071  49.831  0.00  0.00    +0.000 C 
ATOM     13  O   UNL     1      24.104   5.685  50.739  0.00  0.00    +0.000 OA
ATOM     14  H   UNL     1      25.001   3.379  48.759  0.00  0.00    +0.000 HD
BRANCH  12  15
ATOM     15  C   UNL     1      25.577   5.803  48.905  0.00  0.00    +0.000 C 
ATOM     16  F   UNL     1      26.746   5.188  48.630  0.00  0.00    +0.000 F 
ATOM     17  C   UNL     1      25.317   7.041  48.450  0.00  0.00    +0.000 C 
BRANCH  17  18
ATOM     18  C   UNL     1      26.320   7.887  47.725  0.00  0.00    +0.000 C 
BRANCH  18  19
ATOM     19  N   UNL     1      26.677   9.151  48.381  0.00  0.00    +0.000 N 
ATOM     20  C   UNL     1      27.205  10.180  47.458  0.00  0.00    +0.000 C 
ATOM     21  C   UNL     1      28.622   9.901  46.928  0.00  0.00    +0.000 C 
ATOM     22  O   UNL     1      29.554   9.684  47.994  0.00  0.00    +0.000 OA
ATOM     23  C   UNL     1      29.116   8.618  48.843  0.00  0.00    +0.000 C 
ATOM     24  C   UNL     1      27.716   8.910  49.419  0.00  0.00    +0.000 C 
ATOM     25  H   UNL     1      25.807   9.503  48.782  0.00  0.00    +0.000 HD
ENDBRANCH  18  19
ENDBRANCH  17  18
ENDBRANCH  12  15
ENDBRANCH  10  11
BRANCH   1  27
ATOM     26  C   UNL     1      20.806   2.105  48.625  0.00  0.00    +0.000 C 
ATOM     27  O   UNL     1      22.105   2.661  48.862  0.00  0.00    +0.000 OA
ENDBRANCH   1  27
BRANCH   7  28
ATOM     28  N   UNL     1      25.686   1.238  54.025  0.00  0.00    +0.000 N 
ATOM     29  H   UNL     1      25.593   2.037  54.590  0.00  0.00    +0.000 HD
BRANCH  28  30
ATOM     30  C   UNL     1      26.998   0.758  53.804  0.00  0.00    +0.000 A 
ATOM     31  C   UNL     1      28.139   1.535  54.050  0.00  0.00    +0.000 A 
ATOM     32  C   UNL     1      29.413   0.986  53.921  0.00  0.00    +0.000 A 
ATOM     33  C   UNL     1      29.551  -0.352  53.566  0.00  0.00    +0.000 A 
ATOM     34  F   UNL     1      30.786  -0.862  53.442  0.00  0.00    +0.000 F 
ATOM     35  C   UNL     1      28.427  -1.150  53.360  0.00  0.00    +0.000 A 
ATOM     36 CL   UNL     1      28.591  -2.813  52.948  0.00  0.00    +0.000 Cl
ATOM     37  C   UNL     1      27.152  -0.601  53.498  0.00  0.00    +0.000 A 
ENDBRANCH  28  30
ENDBRANCH   7  28
TORSDOF 7
ENDMDL
MODEL 4
REMARK VINA RESULT:    -8.939      3.917      5.821
REMARK INTER + INTRA:         -13.714
REMARK INTER:                 -12.529
REMARK INTRA:                  -1.184
REMARK UNBOUND:                -1.117
REMARK  Name = 
REMARK  8 active torsions:
REMARK  status: ('A' for Active; 'I' for Inactive)
REMARK    1  A    between atoms: C_1  and  O_2
REMARK    2  A    between atoms: O_2  and  C_3
REMARK    3  A    between atoms: C_9  and  N_10
REMARK    4  A    between atoms: N_10  and  C_11
REMARK    5  A    between atoms: C_21  and  N_22
REMARK    6  A    between atoms: C_23  and  C_25
REMARK    7  A    between atoms: C_27  and  C_28
REMARK    8  A    between atoms: C_28  and  N_29
REMARK                            x       y       z     vdW  Elec       q    Type
REMARK                         _______ _______ _______ _____ _____    ______ ____
ROOT
ATOM      1  C   UNL     1      25.362   1.087  52.193  0.00  0.00    +0.000 A 
ATOM      2  C   UNL     1      25.138   0.062  53.132  0.00  0.00    +0.000 A 
ATOM      3  C   UNL     1      23.887  -0.192  53.673  0.00  0.00    +0.000 A 
ATOM      4  N   UNL     1      23.747  -1.190  54.549  0.00  0.00    +0.000 NA
ATOM      5  C   UNL     1      22.516  -1.395  55.034  0.00  0.00    +0.000 A 
ATOM      6  N   UNL     1      21.427  -0.676  54.747  0.00  0.00    +0.000 NA
ATOM      7  C   UNL     1      21.579   0.339  53.876  0.00  0.00    +0.000 A 
ATOM      8  C   UNL     1      22.818   0.608  53.262  0.00  0.00    +0.000 A 
ATOM      9  C   UNL     1      23.043   1.635  52.313  0.00  0.00    +0.000 A 
ATOM     10  C   UNL     1      24.307   1.927  51.809  0.00  0.00    +0.000 A 
ENDROOT
BRANCH  10  11
ATOM     11  N   UNL     1      24.541   3.049  50.965  0.00  0.00    +0.000 N 
ATOM     12  C   UNL     1      24.467   4.388  51.326  0.00  0.00    +0.000 C 
ATOM     13  O   UNL     1      24.082   4.832  52.404  0.00  0.00    +0.000 OA
ATOM     14  H   UNL     1      24.782   2.855  50.030  0.00  0.00    +0.000 HD
BRANCH  12  15
ATOM     15  C   UNL     1      24.965   5.332  50.279  0.00  0.00    +0.000 C 
ATOM     16  F   UNL     1      25.546   4.760  49.203  0.00  0.00    +0.000 F 
ATOM     17  C   UNL     1      24.940   6.666  50.430  0.00  0.00    +0.000 C 
BRANCH  17  18
ATOM     18  C   UNL     1      25.647   7.620  49.514  0.00  0.00    +0.000 C 
BRANCH  18  19
ATOM     19  N   UNL     1      27.082   7.801  49.770  0.00  0.00    +0.000 N 
ATOM     20  C   UNL     1      27.462   9.189  50.113  0.00  0.00    +0.000 C 
ATOM     21  C   UNL     1      27.411  10.178  48.935  0.00  0.00    +0.000 C 
ATOM     22  O   UNL     1      28.195   9.722  47.826  0.00  0.00    +0.000 OA
ATOM     23  C   UNL     1      27.773   8.419  47.407  0.00  0.00    +0.000 C 
ATOM     24  C   UNL     1      27.866   7.408  48.568  0.00  0.00    +0.000 C 
ATOM     25  H   UNL     1      27.290   7.209  50.575  0.00  0.00    +0.000 HD
ENDBRANCH  18  19
ENDBRANCH  17  18
ENDBRANCH  12  15
ENDBRANCH  10  11
BRANCH   1  27
ATOM     26  C   UNL     1      27.548   1.853  52.551  0.00  0.00    +0.000 C 
ATOM     27  O   UNL     1      26.597   1.308  51.629  0.00  0.00    +0.000 OA
ENDBRANCH   1  27
BRANCH   7  28
ATOM     28  N   UNL     1      20.435   1.095  53.495  0.00  0.00    +0.000 N 
ATOM     29  H   UNL     1      20.275   1.936  53.979  0.00  0.00    +0.000 HD
BRANCH  28  30
ATOM     30  C   UNL     1      19.506   0.748  52.485  0.00  0.00    +0.000 A 
ATOM     31  C   UNL     1      19.650   1.162  51.153  0.00  0.00    +0.000 A 
ATOM     32  C   UNL     1      18.770   0.709  50.171  0.00  0.00    +0.000 A 
ATOM     33  C   UNL     1      17.756  -0.178  50.515  0.00  0.00    +0.000 A 
ATOM     34  F   UNL     1      16.916  -0.600  49.557  0.00  0.00    +0.000 F 
ATOM     35  C   UNL     1      17.627  -0.633  51.826  0.00  0.00    +0.000 A 
ATOM     36 CL   UNL     1      16.391  -1.754  52.252  0.00  0.00    +0.000 Cl
ATOM     37  C   UNL     1      18.513  -0.186  52.806  0.00  0.00    +0.000 A 
ENDBRANCH  28  30
ENDBRANCH   7  28
TORSDOF 7
ENDMDL
MODEL 5
REMARK VINA RESULT:    -8.612      5.180      6.393
REMARK INTER + INTRA:         -13.252
REMARK INTER:                 -12.280
REMARK INTRA:                  -0.973
REMARK UNBOUND:                -1.117
REMARK  Name = 
REMARK  8 active torsions:
REMARK  status: ('A' for Active; 'I' for Inactive)
REMARK    1  A    between atoms: C_1  and  O_2
REMARK    2  A    between atoms: O_2  and  C_3
REMARK    3  A    between atoms: C_9  and  N_10
REMARK    4  A    between atoms: N_10  and  C_11
REMARK    5  A    between atoms: C_21  and  N_22
REMARK    6  A    between atoms: C_23  and  C_25
REMARK    7  A    between atoms: C_27  and  C_28
REMARK    8  A    between atoms: C_28  and  N_29
REMARK                            x       y       z     vdW  Elec       q    Type
REMARK                         _______ _______ _______ _____ _____    ______ ____
ROOT
ATOM      1  C   UNL     1      19.984   0.361  52.302  0.00  0.00    +0.000 A 
ATOM      2  C   UNL     1      20.261  -0.335  53.495  0.00  0.00    +0.000 A 
ATOM      3  C   UNL     1      21.554  -0.589  53.926  0.00  0.00    +0.000 A 
ATOM      4  N   UNL     1      21.740  -1.244  55.075  0.00  0.00    +0.000 NA
ATOM      5  C   UNL     1      23.009  -1.456  55.446  0.00  0.00    +0.000 A 
ATOM      6  N   UNL     1      24.099  -1.102  54.760  0.00  0.00    +0.000 NA
ATOM      7  C   UNL     1      23.904  -0.457  53.595  0.00  0.00    +0.000 A 
ATOM      8  C   UNL     1      22.612  -0.132  53.137  0.00  0.00    +0.000 A 
ATOM      9  C   UNL     1      22.333   0.573  51.940  0.00  0.00    +0.000 A 
ATOM     10  C   UNL     1      21.037   0.783  51.478  0.00  0.00    +0.000 A 
ENDROOT
BRANCH  10  11
ATOM     11  N   UNL     1      20.776   1.368  50.208  0.00  0.00    +0.000 N 
ATOM     12  C   UNL     1      21.123   2.650  49.798  0.00  0.00    +0.000 C 
ATOM     13  O   UNL     1      21.618   3.530  50.497  0.00  0.00    +0.000 OA
ATOM     14  H   UNL     1      20.301   0.808  49.552  0.00  0.00    +0.000 HD
BRANCH  12  15
ATOM     15  C   UNL     1      20.897   2.908  48.343  0.00  0.00    +0.000 C 
ATOM     16  F   UNL     1      19.873   2.231  47.780  0.00  0.00    +0.000 F 
ATOM     17  C   UNL     1      21.713   3.678  47.604  0.00  0.00    +0.000 C 
BRANCH  17  18
ATOM     18  C   UNL     1      21.652   3.757  46.108  0.00  0.00    +0.000 C 
BRANCH  18  19
ATOM     19  N   UNL     1      20.914   4.904  45.563  0.00  0.00    +0.000 N 
ATOM     20  C   UNL     1      19.451   4.836  45.775  0.00  0.00    +0.000 C 
ATOM     21  C   UNL     1      18.725   3.789  44.913  0.00  0.00    +0.000 C 
ATOM     22  O   UNL     1      19.004   3.965  43.519  0.00  0.00    +0.000 OA
ATOM     23  C   UNL     1      20.414   3.928  43.273  0.00  0.00    +0.000 C 
ATOM     24  C   UNL     1      21.146   5.007  44.096  0.00  0.00    +0.000 C 
ATOM     25  H   UNL     1      21.268   5.718  46.066  0.00  0.00    +0.000 HD
ENDBRANCH  18  19
ENDBRANCH  17  18
ENDBRANCH  12  15
ENDBRANCH  10  11
BRANCH   1  27
ATOM     26  C   UNL     1      17.821  -0.482  51.981  0.00  0.00    +0.000 C 
ATOM     27  O   UNL     1      18.700   0.646  51.901  0.00  0.00    +0.000 OA
ENDBRANCH   1  27
BRANCH   7  28
ATOM     28  N   UNL     1      25.036  -0.008  52.859  0.00  0.00    +0.000 N 
ATOM     29  H   UNL     1      24.861   0.540  52.061  0.00  0.00    +0.000 HD
BRANCH  28  30
ATOM     30  C   UNL     1      26.391  -0.278  53.168  0.00  0.00    +0.000 A 
ATOM     31  C   UNL     1      27.022  -1.478  52.812  0.00  0.00    +0.000 A 
ATOM     32  C   UNL     1      28.385  -1.657  53.041  0.00  0.00    +0.000 A 
ATOM     33  C   UNL     1      29.128  -0.627  53.606  0.00  0.00    +0.000 A 
ATOM     34  F   UNL     1      30.437  -0.819  53.822  0.00  0.00    +0.000 F 
ATOM     35  C   UNL     1      28.524   0.589  53.925  0.00  0.00    +0.000 A 
ATOM     36 CL   UNL     1      29.444   1.878  54.600  0.00  0.00    +0.000 Cl
ATOM     37  C   UNL     1      27.162   0.770  53.688  0.00  0.00    +0.000 A 
ENDBRANCH  28  30
ENDBRANCH   7  28
TORSDOF 7
ENDMDL
MODEL 6
REMARK VINA RESULT:    -8.571      3.557      5.682
REMARK INTER + INTRA:         -13.195
REMARK INTER:                 -12.627
REMARK INTRA:                  -0.568
REMARK UNBOUND:                -1.117
REMARK  Name = 
REMARK  8 active torsions:
REMARK  status: ('A' for Active; 'I' for Inactive)
REMARK    1  A    between atoms: C_1  and  O_2
REMARK    2  A    between atoms: O_2  and  C_3
REMARK    3  A    between atoms: C_9  and  N_10
REMARK    4  A    between atoms: N_10  and  C_11
REMARK    5  A    between atoms: C_21  and  N_22
REMARK    6  A    between atoms: C_23  and  C_25
REMARK    7  A    between atoms: C_27  and  C_28
REMARK    8  A    between atoms: C_28  and  N_29
REMARK                            x       y       z     vdW  Elec       q    Type
REMARK                         _______ _______ _______ _____ _____    ______ ____
ROOT
ATOM      1  C   UNL     1      26.947   1.782  52.656  0.00  0.00    +0.000 A 
ATOM      2  C   UNL     1      26.376   0.837  53.530  0.00  0.00    +0.000 A 
ATOM      3  C   UNL     1      25.062   0.410  53.409  0.00  0.00    +0.000 A 
ATOM      4  N   UNL     1      24.591  -0.499  54.267  0.00  0.00    +0.000 NA
ATOM      5  C   UNL     1      23.319  -0.879  54.099  0.00  0.00    +0.000 A 
ATOM      6  N   UNL     1      22.472  -0.412  53.178  0.00  0.00    +0.000 NA
ATOM      7  C   UNL     1      22.949   0.517  52.328  0.00  0.00    +0.000 A 
ATOM      8  C   UNL     1      24.288   0.948  52.378  0.00  0.00    +0.000 A 
ATOM      9  C   UNL     1      24.866   1.894  51.496  0.00  0.00    +0.000 A 
ATOM     10  C   UNL     1      26.167   2.364  51.647  0.00  0.00    +0.000 A 
ENDROOT
BRANCH  10  11
ATOM     11  N   UNL     1      26.687   3.415  50.841  0.00  0.00    +0.000 N 
ATOM     12  C   UNL     1      26.097   3.962  49.709  0.00  0.00    +0.000 C 
ATOM     13  O   UNL     1      25.079   3.560  49.151  0.00  0.00    +0.000 OA
ATOM     14  H   UNL     1      27.554   3.794  51.115  0.00  0.00    +0.000 HD
BRANCH  12  15
ATOM     15  C   UNL     1      26.780   5.188  49.195  0.00  0.00    +0.000 C 
ATOM     16  F   UNL     1      26.055   6.326  49.240  0.00  0.00    +0.000 F 
ATOM     17  C   UNL     1      27.996   5.159  48.624  0.00  0.00    +0.000 C 
BRANCH  17  18
ATOM     18  C   UNL     1      28.595   6.319  47.887  0.00  0.00    +0.000 C 
BRANCH  18  19
ATOM     19  N   UNL     1      29.278   7.317  48.720  0.00  0.00    +0.000 N 
ATOM     20  C   UNL     1      28.878   8.714  48.436  0.00  0.00    +0.000 C 
ATOM     21  C   UNL     1      29.403   9.273  47.103  0.00  0.00    +0.000 C 
ATOM     22  O   UNL     1      30.826   9.147  46.998  0.00  0.00    +0.000 OA
ATOM     23  C   UNL     1      31.229   7.783  47.164  0.00  0.00    +0.000 C 
ATOM     24  C   UNL     1      30.750   7.226  48.520  0.00  0.00    +0.000 C 
ATOM     25  H   UNL     1      29.006   7.100  49.680  0.00  0.00    +0.000 HD
ENDBRANCH  18  19
ENDBRANCH  17  18
ENDBRANCH  12  15
ENDBRANCH  10  11
BRANCH   1  27
ATOM     26  C   UNL     1      28.985   1.462  53.770  0.00  0.00    +0.000 C 
ATOM     27  O   UNL     1      28.263   2.171  52.756  0.00  0.00    +0.000 OA
ENDBRANCH   1  27
BRANCH   7  28
ATOM     28  N   UNL     1      22.100   1.000  51.292  0.00  0.00    +0.000 N 
ATOM     29  H   UNL     1      22.487   1.058  50.390  0.00  0.00    +0.000 HD
BRANCH  28  30
ATOM     30  C   UNL     1      20.753   1.407  51.441  0.00  0.00    +0.000 A 
ATOM     31  C   UNL     1      20.382   2.751  51.591  0.00  0.00    +0.000 A 
ATOM     32  C   UNL     1      19.038   3.116  51.626  0.00  0.00    +0.000 A 
ATOM     33  C   UNL     1      18.057   2.139  51.488  0.00  0.00    +0.000 A 
ATOM     34  F   UNL     1      16.769   2.509  51.528  0.00  0.00    +0.000 F 
ATOM     35  C   UNL     1      18.410   0.804  51.293  0.00  0.00    +0.000 A 
ATOM     36 CL   UNL     1      17.201  -0.406  51.094  0.00  0.00    +0.000 Cl
ATOM     37  C   UNL     1      19.756   0.442  51.250  0.00  0.00    +0.000 A 
ENDBRANCH  28  30
ENDBRANCH   7  28
TORSDOF 7
ENDMDL
MODEL 7
REMARK VINA RESULT:    -8.541      4.593      9.964
REMARK INTER + INTRA:         -13.153
REMARK INTER:                 -12.098
REMARK INTRA:                  -1.055
REMARK UNBOUND:                -1.117
REMARK  Name = 
REMARK  8 active torsions:
REMARK  status: ('A' for Active; 'I' for Inactive)
REMARK    1  A    between atoms: C_1  and  O_2
REMARK    2  A    between atoms: O_2  and  C_3
REMARK    3  A    between atoms: C_9  and  N_10
REMARK    4  A    between atoms: N_10  and  C_11
REMARK    5  A    between atoms: C_21  and  N_22
REMARK    6  A    between atoms: C_23  and  C_25
REMARK    7  A    between atoms: C_27  and  C_28
REMARK    8  A    between atoms: C_28  and  N_29
REMARK                            x       y       z     vdW  Elec       q    Type
REMARK                         _______ _______ _______ _____ _____    ______ ____
ROOT
ATOM      1  C   UNL     1      23.234  -0.202  53.429  0.00  0.00    +0.000 A 
ATOM      2  C   UNL     1      24.570  -0.016  53.834  0.00  0.00    +0.000 A 
ATOM      3  C   UNL     1      25.437   0.839  53.170  0.00  0.00    +0.000 A 
ATOM      4  N   UNL     1      26.687   0.976  53.619  0.00  0.00    +0.000 NA
ATOM      5  C   UNL     1      27.479   1.818  52.944  0.00  0.00    +0.000 A 
ATOM      6  N   UNL     1      27.143   2.507  51.850  0.00  0.00    +0.000 NA
ATOM      7  C   UNL     1      25.887   2.351  51.393  0.00  0.00    +0.000 A 
ATOM      8  C   UNL     1      24.953   1.533  52.058  0.00  0.00    +0.000 A 
ATOM      9  C   UNL     1      23.608   1.349  51.655  0.00  0.00    +0.000 A 
ATOM     10  C   UNL     1      22.751   0.452  52.287  0.00  0.00    +0.000 A 
ENDROOT
BRANCH  10  11
ATOM     11  N   UNL     1      21.449   0.174  51.786  0.00  0.00    +0.000 N 
ATOM     12  C   UNL     1      20.307   0.944  51.971  0.00  0.00    +0.000 C 
ATOM     13  O   UNL     1      20.206   1.938  52.685  0.00  0.00    +0.000 OA
ATOM     14  H   UNL     1      21.346  -0.648  51.254  0.00  0.00    +0.000 HD
BRANCH  12  15
ATOM     15  C   UNL     1      19.134   0.504  51.155  0.00  0.00    +0.000 C 
ATOM     16  F   UNL     1      19.183   0.817  49.843  0.00  0.00    +0.000 F 
ATOM     17  C   UNL     1      18.046  -0.070  51.694  0.00  0.00    +0.000 C 
BRANCH  17  18
ATOM     18  C   UNL     1      16.768  -0.296  50.945  0.00  0.00    +0.000 C 
BRANCH  18  19
ATOM     19  N   UNL     1      15.983   0.909  50.649  0.00  0.00    +0.000 N 
ATOM     20  C   UNL     1      15.690   1.743  51.836  0.00  0.00    +0.000 C 
ATOM     21  C   UNL     1      14.654   1.143  52.803  0.00  0.00    +0.000 C 
ATOM     22  O   UNL     1      13.432   0.811  52.131  0.00  0.00    +0.000 OA
ATOM     23  C   UNL     1      13.678  -0.083  51.040  0.00  0.00    +0.000 C 
ATOM     24  C   UNL     1      14.679   0.529  50.039  0.00  0.00    +0.000 C 
ATOM     25  H   UNL     1      16.560   1.459  50.012  0.00  0.00    +0.000 HD
ENDBRANCH  18  19
ENDBRANCH  17  18
ENDBRANCH  12  15
ENDBRANCH  10  11
BRANCH   1  27
ATOM     26  C   UNL     1      22.891  -1.469  55.371  0.00  0.00    +0.000 C 
ATOM     27  O   UNL     1      22.367  -1.020  54.116  0.00  0.00    +0.000 OA
ENDBRANCH   1  27
BRANCH   7  28
ATOM     28  N   UNL     1      25.467   3.109  50.264  0.00  0.00    +0.000 N 
ATOM     29  H   UNL     1      24.735   2.736  49.723  0.00  0.00    +0.000 HD
BRANCH  28  30
ATOM     30  C   UNL     1      26.004   4.350  49.848  0.00  0.00    +0.000 A 
ATOM     31  C   UNL     1      27.102   4.446  48.982  0.00  0.00    +0.000 A 
ATOM     32  C   UNL     1      27.530   5.686  48.513  0.00  0.00    +0.000 A 
ATOM     33  C   UNL     1      26.846   6.837  48.891  0.00  0.00    +0.000 A 
ATOM     34  F   UNL     1      27.276   8.022  48.433  0.00  0.00    +0.000 F 
ATOM     35  C   UNL     1      25.725   6.755  49.716  0.00  0.00    +0.000 A 
ATOM     36 CL   UNL     1      24.857   8.172  50.165  0.00  0.00    +0.000 Cl
ATOM     37  C   UNL     1      25.293   5.512  50.178  0.00  0.00    +0.000 A 
ENDBRANCH  28  30
ENDBRANCH   7  28
TORSDOF 7
ENDMDL
MODEL 8
REMARK VINA RESULT:    -8.534      3.307      4.190
REMARK INTER + INTRA:         -13.142
REMARK INTER:                 -12.147
REMARK INTRA:                  -0.995
REMARK UNBOUND:                -1.117
REMARK  Name = 
REMARK  8 active torsions:
REMARK  status: ('A' for Active; 'I' for Inactive)
REMARK    1  A    between atoms: C_1  and  O_2
REMARK    2  A    between atoms: O_2  and  C_3
REMARK    3  A    between atoms: C_9  and  N_10
REMARK    4  A    between atoms: N_10  and  C_11
REMARK    5  A    between atoms: C_21  and  N_22
REMARK    6  A    between atoms: C_23  and  C_25
REMARK    7  A    between atoms: C_27  and  C_28
REMARK    8  A    between atoms: C_28  and  N_29
REMARK                            x       y       z     vdW  Elec       q    Type
REMARK                         _______ _______ _______ _____ _____    ______ ____
ROOT
ATOM      1  C   UNL     1      20.533   2.066  52.585  0.00  0.00    +0.000 A 
ATOM      2  C   UNL     1      20.616   1.046  53.552  0.00  0.00    +0.000 A 
ATOM      3  C   UNL     1      21.794   0.362  53.813  0.00  0.00    +0.000 A 
ATOM      4  N   UNL     1      21.802  -0.585  54.754  0.00  0.00    +0.000 NA
ATOM      5  C   UNL     1      22.967  -1.209  54.968  0.00  0.00    +0.000 A 
ATOM      6  N   UNL     1      24.108  -0.993  54.308  0.00  0.00    +0.000 NA
ATOM      7  C   UNL     1      24.088  -0.050  53.349  0.00  0.00    +0.000 A 
ATOM      8  C   UNL     1      22.932   0.707  53.079  0.00  0.00    +0.000 A 
ATOM      9  C   UNL     1      22.848   1.737  52.110  0.00  0.00    +0.000 A 
ATOM     10  C   UNL     1      21.656   2.389  51.809  0.00  0.00    +0.000 A 
ENDROOT
BRANCH  10  11
ATOM     11  N   UNL     1      21.556   3.321  50.739  0.00  0.00    +0.000 N 
ATOM     12  C   UNL     1      21.827   4.682  50.796  0.00  0.00    +0.000 C 
ATOM     13  O   UNL     1      22.095   5.330  51.805  0.00  0.00    +0.000 OA
ATOM     14  H   UNL     1      21.265   2.964  49.868  0.00  0.00    +0.000 HD
BRANCH  12  15
ATOM     15  C   UNL     1      21.829   5.362  49.465  0.00  0.00    +0.000 C 
ATOM     16  F   UNL     1      21.726   4.549  48.392  0.00  0.00    +0.000 F 
ATOM     17  C   UNL     1      22.026   6.683  49.322  0.00  0.00    +0.000 C 
BRANCH  17  18
ATOM     18  C   UNL     1      22.275   7.348  48.001  0.00  0.00    +0.000 C 
BRANCH  18  19
ATOM     19  N   UNL     1      23.520   6.966  47.322  0.00  0.00    +0.000 N 
ATOM     20  C   UNL     1      24.738   7.172  48.136  0.00  0.00    +0.000 C 
ATOM     21  C   UNL     1      25.140   8.644  48.331  0.00  0.00    +0.000 C 
ATOM     22  O   UNL     1      25.274   9.327  47.079  0.00  0.00    +0.000 OA
ATOM     23  C   UNL     1      24.067   9.232  46.315  0.00  0.00    +0.000 C 
ATOM     24  C   UNL     1      23.681   7.759  46.073  0.00  0.00    +0.000 C 
ATOM     25  H   UNL     1      23.430   5.967  47.135  0.00  0.00    +0.000 HD
ENDBRANCH  18  19
ENDBRANCH  17  18
ENDBRANCH  12  15
ENDBRANCH  10  11
BRANCH   1  27
ATOM     26  C   UNL     1      18.402   2.030  51.609  0.00  0.00    +0.000 C 
ATOM     27  O   UNL     1      19.373   2.770  52.359  0.00  0.00    +0.000 OA
ENDBRANCH   1  27
BRANCH   7  28
ATOM     28  N   UNL     1      25.295   0.255  52.660  0.00  0.00    +0.000 N 
ATOM     29  H   UNL     1      25.213   0.747  51.812  0.00  0.00    +0.000 HD
BRANCH  28  30
ATOM     30  C   UNL     1      26.603  -0.084  53.080  0.00  0.00    +0.000 A 
ATOM     31  C   UNL     1      27.186  -1.329  52.806  0.00  0.00    +0.000 A 
ATOM     32  C   UNL     1      28.514  -1.581  53.145  0.00  0.00    +0.000 A 
ATOM     33  C   UNL     1      29.273  -0.579  53.740  0.00  0.00    +0.000 A 
ATOM     34  F   UNL     1      30.548  -0.842  54.063  0.00  0.00    +0.000 F 
ATOM     35  C   UNL     1      28.721   0.679  53.979  0.00  0.00    +0.000 A 
ATOM     36 CL   UNL     1      29.663   1.932  54.691  0.00  0.00    +0.000 Cl
ATOM     37  C   UNL     1      27.395   0.932  53.632  0.00  0.00    +0.000 A 
ENDBRANCH  28  30
ENDBRANCH   7  28
TORSDOF 7
ENDMDL
MODEL 9
REMARK VINA RESULT:    -8.370      3.837      5.972
REMARK INTER + INTRA:         -12.911
REMARK INTER:                 -11.635
REMARK INTRA:                  -1.277
REMARK UNBOUND:                -1.117
REMARK  Name = 
REMARK  8 active torsions:
REMARK  status: ('A' for Active; 'I' for Inactive)
REMARK    1  A    between atoms: C_1  and  O_2
REMARK    2  A    between atoms: O_2  and  C_3
REMARK    3  A    between atoms: C_9  and  N_10
REMARK    4  A    between atoms: N_10  and  C_11
REMARK    5  A    between atoms: C_21  and  N_22
REMARK    6  A    between atoms: C_23  and  C_25
REMARK    7  A    between atoms: C_27  and  C_28
REMARK    8  A    between atoms: C_28  and  N_29
REMARK                            x       y       z     vdW  Elec       q    Type
REMARK                         _______ _______ _______ _____ _____    ______ ____
ROOT
ATOM      1  C   UNL     1      26.427   2.031  52.727  0.00  0.00    +0.000 A 
ATOM      2  C   UNL     1      25.928   1.025  53.578  0.00  0.00    +0.000 A 
ATOM      3  C   UNL     1      24.659   0.486  53.429  0.00  0.00    +0.000 A 
ATOM      4  N   UNL     1      24.258  -0.475  54.266  0.00  0.00    +0.000 NA
ATOM      5  C   UNL     1      23.027  -0.963  54.072  0.00  0.00    +0.000 A 
ATOM      6  N   UNL     1      22.156  -0.558  53.144  0.00  0.00    +0.000 NA
ATOM      7  C   UNL     1      22.561   0.422  52.315  0.00  0.00    +0.000 A 
ATOM      8  C   UNL     1      23.857   0.969  52.393  0.00  0.00    +0.000 A 
ATOM      9  C   UNL     1      24.361   1.976  51.535  0.00  0.00    +0.000 A 
ATOM     10  C   UNL     1      25.613   2.557  51.714  0.00  0.00    +0.000 A 
ENDROOT
BRANCH  10  11
ATOM     11  N   UNL     1      26.050   3.663  50.932  0.00  0.00    +0.000 N 
ATOM     12  C   UNL     1      26.683   3.606  49.696  0.00  0.00    +0.000 C 
ATOM     13  O   UNL     1      27.067   2.592  49.120  0.00  0.00    +0.000 OA
ATOM     14  H   UNL     1      25.887   4.559  51.305  0.00  0.00    +0.000 HD
BRANCH  12  15
ATOM     15  C   UNL     1      26.837   4.934  49.027  0.00  0.00    +0.000 C 
ATOM     16  F   UNL     1      27.921   5.068  48.234  0.00  0.00    +0.000 F 
ATOM     17  C   UNL     1      26.020   5.972  49.271  0.00  0.00    +0.000 C 
BRANCH  17  18
ATOM     18  C   UNL     1      26.292   7.371  48.806  0.00  0.00    +0.000 C 
BRANCH  18  19
ATOM     19  N   UNL     1      25.747   8.439  49.653  0.00  0.00    +0.000 N 
ATOM     20  C   UNL     1      24.270   8.527  49.636  0.00  0.00    +0.000 C 
ATOM     21  C   UNL     1      23.674   9.077  48.329  0.00  0.00    +0.000 C 
ATOM     22  O   UNL     1      24.238  10.348  47.983  0.00  0.00    +0.000 OA
ATOM     23  C   UNL     1      25.664  10.263  47.890  0.00  0.00    +0.000 C 
ATOM     24  C   UNL     1      26.276   9.758  49.212  0.00  0.00    +0.000 C 
ATOM     25  H   UNL     1      26.038   8.206  50.603  0.00  0.00    +0.000 HD
ENDBRANCH  18  19
ENDBRANCH  17  18
ENDBRANCH  12  15
ENDBRANCH  10  11
BRANCH   1  27
ATOM     26  C   UNL     1      28.596   1.636  53.522  0.00  0.00    +0.000 C 
ATOM     27  O   UNL     1      27.701   2.533  52.854  0.00  0.00    +0.000 OA
ENDBRANCH   1  27
BRANCH   7  28
ATOM     28  N   UNL     1      21.689   0.845  51.273  0.00  0.00    +0.000 N 
ATOM     29  H   UNL     1      21.839   0.457  50.382  0.00  0.00    +0.000 HD
BRANCH  28  30
ATOM     30  C   UNL     1      20.628   1.773  51.400  0.00  0.00    +0.000 A 
ATOM     31  C   UNL     1      20.824   3.159  51.328  0.00  0.00    +0.000 A 
ATOM     32  C   UNL     1      19.737   4.031  51.350  0.00  0.00    +0.000 A 
ATOM     33  C   UNL     1      18.446   3.518  51.421  0.00  0.00    +0.000 A 
ATOM     34  F   UNL     1      17.413   4.373  51.446  0.00  0.00    +0.000 F 
ATOM     35  C   UNL     1      18.233   2.141  51.448  0.00  0.00    +0.000 A 
ATOM     36 CL   UNL     1      16.636   1.499  51.507  0.00  0.00    +0.000 Cl
ATOM     37  C   UNL     1      19.321   1.269  51.418  0.00  0.00    +0.000 A 
ENDBRANCH  28  30
ENDBRANCH   7  28
TORSDOF 7
ENDMDL
