
     RDKit          3D

 45 49  0  0  0  0  0  0  0  0999 V2000
    7.1726   -0.0432   -1.9613 N   0  0  0  0  0  0  0  0  0  0  0  0
    6.3852    0.3351   -0.8317 C   0  0  0  0  0  0  0  0  0  0  0  0
    4.9902    0.4221   -0.9369 C   0  0  0  0  0  0  0  0  0  0  0  0
    4.2331    0.8005    0.1865 C   0  0  0  0  0  0  0  0  0  0  0  0
    2.8256    0.9095    0.1688 C   0  0  0  0  0  0  0  0  0  0  0  0
    2.0718    0.7234   -1.0418 N   0  0  0  0  0  0  0  0  0  0  0  0
    0.7193    0.2360   -1.0633 C   0  0  0  0  0  0  0  0  0  0  0  0
    0.2437   -0.6610   -0.0661 C   0  0  0  0  0  0  0  0  0  0  0  0
   -1.0763   -1.1475   -0.1046 C   0  0  0  0  0  0  0  0  0  0  0  0
   -1.8902   -0.7306   -1.1575 C   0  0  0  0  0  0  0  0  0  0  0  0
   -1.4328    0.1157   -2.1247 C   0  0  0  0  0  0  0  0  0  0  0  0
   -2.4931    0.3111   -2.9831 C   0  0  0  0  0  0  0  0  0  0  0  0
   -3.5491   -0.4034   -2.5243 N   0  0  0  0  0  0  0  0  0  0  0  0
   -3.1741   -1.0424   -1.4204 N   0  0  0  0  0  0  0  0  0  0  0  0
   -4.0759   -1.8605   -0.6123 C   0  0  0  0  0  0  0  0  0  0  0  0
   -4.6584   -1.0374    0.5040 C   0  0  0  0  0  0  0  0  0  0  0  0
   -4.2225   -1.2148    1.8280 C   0  0  0  0  0  0  0  0  0  0  0  0
   -4.7500   -0.4251    2.8545 C   0  0  0  0  0  0  0  0  0  0  0  0
   -5.7116    0.5475    2.5671 C   0  0  0  0  0  0  0  0  0  0  0  0
   -6.1471    0.7326    1.2522 C   0  0  0  0  0  0  0  0  0  0  0  0
   -5.6222   -0.0548    0.2227 C   0  0  0  0  0  0  0  0  0  0  0  0
   -0.1356    0.6181   -2.1210 C   0  0  0  0  0  0  0  0  0  0  0  0
    2.1736    1.2541    1.3136 N   0  0  0  0  0  0  0  0  0  0  0  0
    2.8400    1.4904    2.4720 C   0  0  0  0  0  0  0  0  0  0  0  0
    4.1925    1.3972    2.5110 N   0  0  0  0  0  0  0  0  0  0  0  0
    4.8996    1.0605    1.4023 C   0  0  0  0  0  0  0  0  0  0  0  0
    6.2920    0.9621    1.4601 C   0  0  0  0  0  0  0  0  0  0  0  0
    6.9956    0.6070    0.3534 N   0  0  0  0  0  0  0  0  0  0  0  0
    6.7261   -0.2579   -2.8808 H   0  0  0  0  0  0  0  0  0  0  0  0
    8.2114   -0.1090   -1.8794 H   0  0  0  0  0  0  0  0  0  0  0  0
    4.5197    0.1811   -1.8803 H   0  0  0  0  0  0  0  0  0  0  0  0
    2.4744    1.0807   -1.9370 H   0  0  0  0  0  0  0  0  0  0  0  0
    0.8975   -0.9982    0.7272 H   0  0  0  0  0  0  0  0  0  0  0  0
   -1.4337   -1.8302    0.6536 H   0  0  0  0  0  0  0  0  0  0  0  0
   -2.5066    0.9313   -3.8694 H   0  0  0  0  0  0  0  0  0  0  0  0
   -4.8987   -2.2486   -1.2514 H   0  0  0  0  0  0  0  0  0  0  0  0
   -3.5322   -2.7462   -0.2178 H   0  0  0  0  0  0  0  0  0  0  0  0
   -3.4781   -1.9633    2.0675 H   0  0  0  0  0  0  0  0  0  0  0  0
   -4.4123   -0.5664    3.8731 H   0  0  0  0  0  0  0  0  0  0  0  0
   -6.1182    1.1582    3.3628 H   0  0  0  0  0  0  0  0  0  0  0  0
   -6.8900    1.4877    1.0301 H   0  0  0  0  0  0  0  0  0  0  0  0
   -5.9638    0.1020   -0.7930 H   0  0  0  0  0  0  0  0  0  0  0  0
    0.1993    1.2897   -2.9015 H   0  0  0  0  0  0  0  0  0  0  0  0
    2.2919    1.7601    3.3641 H   0  0  0  0  0  0  0  0  0  0  0  0
    6.8175    1.1634    2.3848 H   0  0  0  0  0  0  0  0  0  0  0  0
  1  2  1  0
  2  3  2  0
  3  4  1  0
  4  5  2  0
  5  6  1  0
  6  7  1  0
  7  8  2  0
  8  9  1  0
  9 10  2  0
 10 11  1  0
 11 12  1  0
 12 13  2  0
 13 14  1  0
 14 15  1  0
 15 16  1  0
 16 17  2  0
 17 18  1  0
 18 19  2  0
 19 20  1  0
 20 21  2  0
 11 22  2  0
  5 23  1  0
 23 24  2  0
 24 25  1  0
 25 26  2  0
 26 27  1  0
 27 28  2  0
 28  2  1  0
 26  4  1  0
 22  7  1  0
 14 10  1  0
 21 16  1  0
  1 29  1  0
  1 30  1  0
  3 31  1  0
  6 32  1  0
  8 33  1  0
  9 34  1  0
 12 35  1  0
 15 36  1  0
 15 37  1  0
 17 38  1  0
 18 39  1  0
 19 40  1  0
 20 41  1  0
 21 42  1  0
 22 43  1  0
 24 44  1  0
 27 45  1  0
M  END
