REMARK  Name = 
REMARK  15 active torsions:
REMARK  status: ('A' for Active; 'I' for Inactive)
REMARK    1  A    between atoms: C_1  and  C_2
REMARK    2  A    between atoms: C_2  and  O_3
REMARK    3  A    between atoms: O_3  and  C_4
REMARK    4  A    between atoms: C_9  and  C_10
REMARK    5  A    between atoms: C_12  and  N_13
REMARK    6  A    between atoms: N_13  and  C_14
REMARK    7  A    between atoms: C_17  and  O_18
REMARK    8  A    between atoms: O_18  and  C_19
REMARK    9  A    between atoms: C_19  and  C_20
REMARK   10  A    between atoms: C_31  and  N_32
REMARK   11  A    between atoms: C_33  and  C_35
REMARK   12  A    between atoms: C_35  and  C_36
REMARK   13  A    between atoms: C_36  and  N_37
REMARK   14  A    between atoms: N_37  and  C_38
REMARK   15  A    between atoms: N_37  and  C_39
REMARK                            x       y       z     vdW  Elec       q    Type
REMARK                         _______ _______ _______ _____ _____    ______ ____
ROOT
ATOM      1  C   UNL     1       2.315  -1.463  -1.509  0.00  0.00    +0.000 A 
ATOM      2  C   UNL     1       2.840  -1.588  -2.809  0.00  0.00    +0.000 A 
ATOM      3  C   UNL     1       4.155  -1.992  -3.063  0.00  0.00    +0.000 A 
ATOM      4  N   UNL     1       4.539  -2.175  -4.351  0.00  0.00    +0.000 NA
ATOM      5  C   UNL     1       5.840  -2.416  -4.644  0.00  0.00    +0.000 A 
ATOM      6  C   UNL     1       6.860  -2.405  -3.715  0.00  0.00    +0.000 A 
ATOM      7  C   UNL     1       6.455  -2.303  -2.352  0.00  0.00    +0.000 A 
ATOM      8  C   UNL     1       5.031  -2.158  -1.974  0.00  0.00    +0.000 A 
ATOM      9  C   UNL     1       4.394  -2.174  -0.633  0.00  0.00    +0.000 A 
ATOM     10  C   UNL     1       3.021  -1.939  -0.405  0.00  0.00    +0.000 A 
ENDROOT
BRANCH  10  11
ATOM     11  N   UNL     1       2.222  -2.144   0.800  0.00  0.00    +0.000 N 
ATOM     12  C   UNL     1       2.590  -2.649   2.029  0.00  0.00    +0.000 C 
ATOM     13  O   UNL     1       3.749  -3.030   2.232  0.00  0.00    +0.000 OA
ATOM     14  H   UNL     1       1.277  -1.881   0.724  0.00  0.00    +0.000 HD
BRANCH  12  15
ATOM     15  C   UNL     1       1.556  -2.739   3.244  0.00  0.00    +0.000 C 
BRANCH  15  16
ATOM     16  C   UNL     1       0.049  -2.331   3.229  0.00  0.00    +0.000 C 
BRANCH  16  17
ATOM     17  N   UNL     1      -0.843  -2.708   4.376  0.00  0.00    +0.000 N 
ATOM     18  C   UNL     1      -2.205  -2.151   4.262  0.00  0.00    +0.000 C 
ATOM     19  C   UNL     1      -0.412  -2.538   5.765  0.00  0.00    +0.000 C 
ATOM     20  H   UNL     1      -0.796  -3.716   4.231  0.00  0.00    +0.000 HD
ENDBRANCH  16  17
ENDBRANCH  15  16
ENDBRANCH  12  15
ENDBRANCH  10  11
BRANCH   6  21
ATOM     21  C   UNL     1       8.237  -2.454  -4.213  0.00  0.00    +0.000 C 
ATOM     22  N   UNL     1       9.295  -2.577  -4.668  0.00  0.00    +0.000 NA
ENDBRANCH   6  21
BRANCH   7  23
ATOM     23  N   UNL     1       7.443  -2.237  -1.315  0.00  0.00    +0.000 N 
ATOM     24  H   UNL     1       7.305  -1.541  -0.633  0.00  0.00    +0.000 HD
BRANCH  23  25
ATOM     25  C   UNL     1       8.590  -3.044  -1.149  0.00  0.00    +0.000 A 
ATOM     26  C   UNL     1       8.693  -4.310  -1.724  0.00  0.00    +0.000 A 
ATOM     27  C   UNL     1       9.791  -5.128  -1.466  0.00  0.00    +0.000 A 
ATOM     28  C   UNL     1      10.816  -4.701  -0.618  0.00  0.00    +0.000 A 
ATOM     29  C   UNL     1      10.719  -3.430  -0.036  0.00  0.00    +0.000 A 
ATOM     30 CL   UNL     1      11.923  -2.850   1.062  0.00  0.00    +0.000 Cl
ATOM     31  C   UNL     1       9.625  -2.601  -0.316  0.00  0.00    +0.000 A 
BRANCH  28  32
ATOM     32  O   UNL     1      11.905  -5.477  -0.302  0.00  0.00    +0.000 OA
BRANCH  32  33
ATOM     33  C   UNL     1      12.141  -6.577  -1.187  0.00  0.00    +0.000 C 
BRANCH  33  34
ATOM     34  C   UNL     1      13.520  -7.172  -1.050  0.00  0.00    +0.000 A 
ATOM     35  C   UNL     1      14.586  -6.438  -0.538  0.00  0.00    +0.000 A 
ATOM     36  C   UNL     1      15.863  -6.989  -0.586  0.00  0.00    +0.000 A 
ATOM     37  C   UNL     1      16.043  -8.249  -1.144  0.00  0.00    +0.000 A 
ATOM     38  C   UNL     1      14.931  -8.919  -1.620  0.00  0.00    +0.000 A 
ATOM     39  N   UNL     1      13.682  -8.411  -1.588  0.00  0.00    +0.000 NA
ENDBRANCH  33  34
ENDBRANCH  32  33
ENDBRANCH  28  32
ENDBRANCH  23  25
ENDBRANCH   7  23
BRANCH   1  40
ATOM     40  O   UNL     1       1.052  -0.938  -1.322  0.00  0.00    +0.000 OA
BRANCH  40  42
ATOM     41  C   UNL     1       0.944   0.667   0.578  0.00  0.00    +0.000 C 
ATOM     42  C   UNL     1       1.100   0.455  -0.928  0.00  0.00    +0.000 C 
ENDBRANCH  40  42
ENDBRANCH   1  40
TORSDOF 12
