MODEL 1
REMARK VINA RESULT:    -9.942      0.000      0.000
REMARK INTER + INTRA:         -13.243
REMARK INTER:                 -12.266
REMARK INTRA:                  -0.976
REMARK UNBOUND:                -0.976
REMARK  Name = 
REMARK  4 active torsions:
REMARK  status: ('A' for Active; 'I' for Inactive)
REMARK    1  A    between atoms: C_2  and  C_3
REMARK    2  A    between atoms: C_3  and  N_4
REMARK    3  A    between atoms: N_14  and  C_15
REMARK    4  A    between atoms: N_23  and  C_24
REMARK                            x       y       z     vdW  Elec       q    Type
REMARK                         _______ _______ _______ _____ _____    ______ ____
ROOT
ATOM      1  C   UNL     1      20.994   1.583  51.886  0.00  0.00    +0.000 A 
ATOM      2  C   UNL     1      19.972   1.035  52.657  0.00  0.00    +0.000 A 
ATOM      3  C   UNL     1      20.256   0.118  53.667  0.00  0.00    +0.000 A 
ATOM      4  C   UNL     1      21.548  -0.273  53.945  0.00  0.00    +0.000 A 
ATOM      5  N   UNL     1      21.736  -1.044  55.015  0.00  0.00    +0.000 NA
ATOM      6  C   UNL     1      22.996  -1.343  55.325  0.00  0.00    +0.000 A 
ATOM      7  N   UNL     1      24.078  -0.980  54.634  0.00  0.00    +0.000 NA
ATOM      8  C   UNL     1      23.874  -0.229  53.533  0.00  0.00    +0.000 A 
ATOM      9  N   UNL     1      25.009   0.148  52.776  0.00  0.00    +0.000 N 
ATOM     10  C   UNL     1      22.589   0.188  53.126  0.00  0.00    +0.000 A 
ATOM     11  C   UNL     1      22.291   1.087  52.054  0.00  0.00    +0.000 A 
ATOM     12  H   UNL     1      24.889   0.213  51.801  0.00  0.00    +0.000 HD
ENDROOT
BRANCH   9  13
ATOM     13  C   UNL     1      26.297   0.440  53.278  0.00  0.00    +0.000 A 
ATOM     14  C   UNL     1      26.666   1.751  53.622  0.00  0.00    +0.000 A 
ATOM     15  C   UNL     1      27.993   2.078  53.919  0.00  0.00    +0.000 A 
ATOM     16  C   UNL     1      28.975   1.093  53.886  0.00  0.00    +0.000 A 
ATOM     17  C   UNL     1      28.615  -0.220  53.587  0.00  0.00    +0.000 A 
ATOM     18 BR   UNL     1      29.945  -1.565  53.559  0.00  0.00    +0.000 Br
ATOM     19  C   UNL     1      27.291  -0.549  53.282  0.00  0.00    +0.000 A 
ENDBRANCH   9  13
BRANCH   1  22
ATOM     20  O   UNL     1      21.452   4.397  52.412  0.00  0.00    +0.000 OA
ATOM     21  C   UNL     1      21.020   3.996  51.330  0.00  0.00    +0.000 C 
ATOM     22  N   UNL     1      20.760   2.664  51.004  0.00  0.00    +0.000 N 
ATOM     23  H   UNL     1      20.393   2.466  50.112  0.00  0.00    +0.000 HD
BRANCH  21  24
ATOM     24  C   UNL     1      20.712   5.003  50.234  0.00  0.00    +0.000 C 
BRANCH  24  25
ATOM     25  N   UNL     1      21.895   5.722  49.816  0.00  0.00    +0.000 N 
ATOM     26  S   UNL     1      23.085   4.985  48.827  0.00  0.00    +0.000 S 
ATOM     27  C   UNL     1      24.166   6.366  49.072  0.00  0.00    +0.000 A 
ATOM     28  C   UNL     1      25.454   6.536  48.592  0.00  0.00    +0.000 A 
ATOM     29  C   UNL     1      26.161   7.683  48.972  0.00  0.00    +0.000 A 
ATOM     30  C   UNL     1      25.580   8.638  49.822  0.00  0.00    +0.000 A 
ATOM     31  C   UNL     1      24.271   8.474  50.280  0.00  0.00    +0.000 A 
ATOM     32  C   UNL     1      23.583   7.340  49.885  0.00  0.00    +0.000 A 
ATOM     33  C   UNL     1      22.212   6.978  50.278  0.00  0.00    +0.000 A 
ATOM     34  O   UNL     1      21.464   7.714  50.913  0.00  0.00    +0.000 OA
ENDBRANCH  24  25
ENDBRANCH  21  24
ENDBRANCH   1  22
TORSDOF 4
ENDMDL
MODEL 2
REMARK VINA RESULT:    -9.897      1.386      1.684
REMARK INTER + INTRA:         -13.187
REMARK INTER:                 -12.205
REMARK INTRA:                  -0.982
REMARK UNBOUND:                -0.976
REMARK  Name = 
REMARK  4 active torsions:
REMARK  status: ('A' for Active; 'I' for Inactive)
REMARK    1  A    between atoms: C_2  and  C_3
REMARK    2  A    between atoms: C_3  and  N_4
REMARK    3  A    between atoms: N_14  and  C_15
REMARK    4  A    between atoms: N_23  and  C_24
REMARK                            x       y       z     vdW  Elec       q    Type
REMARK                         _______ _______ _______ _____ _____    ______ ____
ROOT
ATOM      1  C   UNL     1      20.783   0.930  51.719  0.00  0.00    +0.000 A 
ATOM      2  C   UNL     1      19.798   0.333  52.502  0.00  0.00    +0.000 A 
ATOM      3  C   UNL     1      20.142  -0.477  53.583  0.00  0.00    +0.000 A 
ATOM      4  C   UNL     1      21.457  -0.710  53.921  0.00  0.00    +0.000 A 
ATOM      5  N   UNL     1      21.688  -1.381  55.048  0.00  0.00    +0.000 NA
ATOM      6  C   UNL     1      22.961  -1.524  55.411  0.00  0.00    +0.000 A 
ATOM      7  N   UNL     1      24.022  -1.100  54.723  0.00  0.00    +0.000 NA
ATOM      8  C   UNL     1      23.779  -0.453  53.565  0.00  0.00    +0.000 A 
ATOM      9  N   UNL     1      24.893  -0.013  52.812  0.00  0.00    +0.000 N 
ATOM     10  C   UNL     1      22.472  -0.202  53.097  0.00  0.00    +0.000 A 
ATOM     11  C   UNL     1      22.119   0.585  51.955  0.00  0.00    +0.000 A 
ATOM     12  H   UNL     1      24.800  -0.028  51.832  0.00  0.00    +0.000 HD
ENDROOT
BRANCH   9  13
ATOM     13  C   UNL     1      26.127   0.447  53.323  0.00  0.00    +0.000 A 
ATOM     14  C   UNL     1      26.326   1.800  53.645  0.00  0.00    +0.000 A 
ATOM     15  C   UNL     1      27.597   2.295  53.952  0.00  0.00    +0.000 A 
ATOM     16  C   UNL     1      28.694   1.439  53.952  0.00  0.00    +0.000 A 
ATOM     17  C   UNL     1      28.505   0.087  53.676  0.00  0.00    +0.000 A 
ATOM     18 BR   UNL     1      29.991  -1.083  53.691  0.00  0.00    +0.000 Br
ATOM     19  C   UNL     1      27.236  -0.410  53.361  0.00  0.00    +0.000 A 
ENDBRANCH   9  13
BRANCH   1  22
ATOM     20  O   UNL     1      21.291   0.808  48.868  0.00  0.00    +0.000 OA
ATOM     21  C   UNL     1      20.737   1.775  49.393  0.00  0.00    +0.000 C 
ATOM     22  N   UNL     1      20.469   1.916  50.755  0.00  0.00    +0.000 N 
ATOM     23  H   UNL     1      20.038   2.747  51.062  0.00  0.00    +0.000 HD
BRANCH  21  24
ATOM     24  C   UNL     1      20.305   2.946  48.524  0.00  0.00    +0.000 C 
BRANCH  24  25
ATOM     25  N   UNL     1      21.157   4.099  48.714  0.00  0.00    +0.000 N 
ATOM     26  S   UNL     1      22.591   4.310  47.801  0.00  0.00    +0.000 S 
ATOM     27  C   UNL     1      23.062   5.675  48.826  0.00  0.00    +0.000 A 
ATOM     28  C   UNL     1      24.219   6.433  48.759  0.00  0.00    +0.000 A 
ATOM     29  C   UNL     1      24.423   7.426  49.724  0.00  0.00    +0.000 A 
ATOM     30  C   UNL     1      23.478   7.648  50.740  0.00  0.00    +0.000 A 
ATOM     31  C   UNL     1      22.301   6.898  50.785  0.00  0.00    +0.000 A 
ATOM     32  C   UNL     1      22.110   5.928  49.816  0.00  0.00    +0.000 A 
ATOM     33  C   UNL     1      20.954   5.026  49.710  0.00  0.00    +0.000 A 
ATOM     34  O   UNL     1      19.949   5.114  50.408  0.00  0.00    +0.000 OA
ENDBRANCH  24  25
ENDBRANCH  21  24
ENDBRANCH   1  22
TORSDOF 4
ENDMDL
MODEL 3
REMARK VINA RESULT:    -9.569      3.489      8.072
REMARK INTER + INTRA:         -12.783
REMARK INTER:                 -11.745
REMARK INTRA:                  -1.038
REMARK UNBOUND:                -0.976
REMARK  Name = 
REMARK  4 active torsions:
REMARK  status: ('A' for Active; 'I' for Inactive)
REMARK    1  A    between atoms: C_2  and  C_3
REMARK    2  A    between atoms: C_3  and  N_4
REMARK    3  A    between atoms: N_14  and  C_15
REMARK    4  A    between atoms: N_23  and  C_24
REMARK                            x       y       z     vdW  Elec       q    Type
REMARK                         _______ _______ _______ _____ _____    ______ ____
ROOT
ATOM      1  C   UNL     1      22.890   4.423  52.119  0.00  0.00    +0.000 A 
ATOM      2  C   UNL     1      21.567   4.590  51.716  0.00  0.00    +0.000 A 
ATOM      3  C   UNL     1      21.233   5.535  50.748  0.00  0.00    +0.000 A 
ATOM      4  C   UNL     1      22.189   6.329  50.152  0.00  0.00    +0.000 A 
ATOM      5  N   UNL     1      21.797   7.104  49.142  0.00  0.00    +0.000 NA
ATOM      6  C   UNL     1      22.745   7.799  48.517  0.00  0.00    +0.000 A 
ATOM      7  N   UNL     1      24.038   7.826  48.844  0.00  0.00    +0.000 NA
ATOM      8  C   UNL     1      24.418   7.065  49.890  0.00  0.00    +0.000 A 
ATOM      9  N   UNL     1      25.783   7.097  50.262  0.00  0.00    +0.000 N 
ATOM     10  C   UNL     1      23.515   6.251  50.604  0.00  0.00    +0.000 A 
ATOM     11  C   UNL     1      23.849   5.319  51.637  0.00  0.00    +0.000 A 
ATOM     12  H   UNL     1      25.983   7.009  51.223  0.00  0.00    +0.000 HD
ENDROOT
BRANCH   9  13
ATOM     13  C   UNL     1      26.890   7.242  49.396  0.00  0.00    +0.000 A 
ATOM     14  C   UNL     1      27.374   6.160  48.642  0.00  0.00    +0.000 A 
ATOM     15  C   UNL     1      28.585   6.241  47.948  0.00  0.00    +0.000 A 
ATOM     16  C   UNL     1      29.331   7.415  47.989  0.00  0.00    +0.000 A 
ATOM     17  C   UNL     1      28.843   8.509  48.699  0.00  0.00    +0.000 A 
ATOM     18 BR   UNL     1      29.847  10.112  48.743  0.00  0.00    +0.000 Br
ATOM     19  C   UNL     1      27.636   8.429  49.400  0.00  0.00    +0.000 A 
ENDBRANCH   9  13
BRANCH   1  22
ATOM     20  O   UNL     1      23.463   1.712  51.267  0.00  0.00    +0.000 OA
ATOM     21  C   UNL     1      23.555   2.060  52.445  0.00  0.00    +0.000 C 
ATOM     22  N   UNL     1      23.284   3.338  52.937  0.00  0.00    +0.000 N 
ATOM     23  H   UNL     1      23.372   3.493  53.905  0.00  0.00    +0.000 HD
BRANCH  21  24
ATOM     24  C   UNL     1      23.979   1.041  53.490  0.00  0.00    +0.000 C 
BRANCH  24  25
ATOM     25  N   UNL     1      25.367   0.661  53.338  0.00  0.00    +0.000 N 
ATOM     26  S   UNL     1      25.815  -0.941  52.929  0.00  0.00    +0.000 S 
ATOM     27  C   UNL     1      27.516  -0.561  53.239  0.00  0.00    +0.000 A 
ATOM     28  C   UNL     1      28.607  -1.411  53.165  0.00  0.00    +0.000 A 
ATOM     29  C   UNL     1      29.865  -0.914  53.526  0.00  0.00    +0.000 A 
ATOM     30  C   UNL     1      30.019   0.415  53.956  0.00  0.00    +0.000 A 
ATOM     31  C   UNL     1      28.919   1.274  54.001  0.00  0.00    +0.000 A 
ATOM     32  C   UNL     1      27.685   0.769  53.629  0.00  0.00    +0.000 A 
ATOM     33  C   UNL     1      26.412   1.506  53.632  0.00  0.00    +0.000 A 
ATOM     34  O   UNL     1      26.317   2.710  53.850  0.00  0.00    +0.000 OA
ENDBRANCH  24  25
ENDBRANCH  21  24
ENDBRANCH   1  22
TORSDOF 4
ENDMDL
MODEL 4
REMARK VINA RESULT:    -9.558      3.712      6.147
REMARK INTER + INTRA:         -12.769
REMARK INTER:                 -12.526
REMARK INTRA:                  -0.243
REMARK UNBOUND:                -0.976
REMARK  Name = 
REMARK  4 active torsions:
REMARK  status: ('A' for Active; 'I' for Inactive)
REMARK    1  A    between atoms: C_2  and  C_3
REMARK    2  A    between atoms: C_3  and  N_4
REMARK    3  A    between atoms: N_14  and  C_15
REMARK    4  A    between atoms: N_23  and  C_24
REMARK                            x       y       z     vdW  Elec       q    Type
REMARK                         _______ _______ _______ _____ _____    ______ ____
ROOT
ATOM      1  C   UNL     1      24.265   1.972  51.706  0.00  0.00    +0.000 A 
ATOM      2  C   UNL     1      25.400   1.444  52.314  0.00  0.00    +0.000 A 
ATOM      3  C   UNL     1      25.288   0.508  53.340  0.00  0.00    +0.000 A 
ATOM      4  C   UNL     1      24.060   0.067  53.784  0.00  0.00    +0.000 A 
ATOM      5  N   UNL     1      24.052  -0.928  54.670  0.00  0.00    +0.000 NA
ATOM      6  C   UNL     1      22.861  -1.405  55.025  0.00  0.00    +0.000 A 
ATOM      7  N   UNL     1      21.679  -0.944  54.611  0.00  0.00    +0.000 NA
ATOM      8  C   UNL     1      21.698   0.086  53.741  0.00  0.00    +0.000 A 
ATOM      9  N   UNL     1      20.453   0.601  53.307  0.00  0.00    +0.000 N 
ATOM     10  C   UNL     1      22.897   0.649  53.258  0.00  0.00    +0.000 A 
ATOM     11  C   UNL     1      23.013   1.650  52.242  0.00  0.00    +0.000 A 
ATOM     12  H   UNL     1      20.410   1.569  53.134  0.00  0.00    +0.000 HD
ENDROOT
BRANCH   9  13
ATOM     13  C   UNL     1      19.265  -0.134  53.096  0.00  0.00    +0.000 A 
ATOM     14  C   UNL     1      18.966  -1.276  53.858  0.00  0.00    +0.000 A 
ATOM     15  C   UNL     1      17.904  -2.119  53.519  0.00  0.00    +0.000 A 
ATOM     16  C   UNL     1      17.114  -1.829  52.411  0.00  0.00    +0.000 A 
ATOM     17  C   UNL     1      17.373  -0.677  51.671  0.00  0.00    +0.000 A 
ATOM     18 BR   UNL     1      16.289  -0.270  50.175  0.00  0.00    +0.000 Br
ATOM     19  C   UNL     1      18.438   0.165  52.003  0.00  0.00    +0.000 A 
ENDBRANCH   9  13
BRANCH   1  22
ATOM     20  O   UNL     1      24.388   4.864  51.544  0.00  0.00    +0.000 OA
ATOM     21  C   UNL     1      24.417   4.151  50.540  0.00  0.00    +0.000 C 
ATOM     22  N   UNL     1      24.349   2.757  50.532  0.00  0.00    +0.000 N 
ATOM     23  H   UNL     1      24.359   2.295  49.663  0.00  0.00    +0.000 HD
BRANCH  21  24
ATOM     24  C   UNL     1      24.517   4.802  49.169  0.00  0.00    +0.000 C 
BRANCH  24  25
ATOM     25  N   UNL     1      25.793   5.457  48.977  0.00  0.00    +0.000 N 
ATOM     26  S   UNL     1      25.896   7.141  48.676  0.00  0.00    +0.000 S 
ATOM     27  C   UNL     1      27.622   6.986  48.314  0.00  0.00    +0.000 A 
ATOM     28  C   UNL     1      28.500   7.978  47.910  0.00  0.00    +0.000 A 
ATOM     29  C   UNL     1      29.818   7.617  47.603  0.00  0.00    +0.000 A 
ATOM     30  C   UNL     1      30.240   6.281  47.701  0.00  0.00    +0.000 A 
ATOM     31  C   UNL     1      29.356   5.291  48.135  0.00  0.00    +0.000 A 
ATOM     32  C   UNL     1      28.060   5.667  48.445  0.00  0.00    +0.000 A 
ATOM     33  C   UNL     1      26.983   4.772  48.894  0.00  0.00    +0.000 A 
ATOM     34  O   UNL     1      27.145   3.588  49.170  0.00  0.00    +0.000 OA
ENDBRANCH  24  25
ENDBRANCH  21  24
ENDBRANCH   1  22
TORSDOF 4
ENDMDL
MODEL 5
REMARK VINA RESULT:    -9.511      2.373      3.427
REMARK INTER + INTRA:         -12.711
REMARK INTER:                 -11.987
REMARK INTRA:                  -0.724
REMARK UNBOUND:                -0.976
REMARK  Name = 
REMARK  4 active torsions:
REMARK  status: ('A' for Active; 'I' for Inactive)
REMARK    1  A    between atoms: C_2  and  C_3
REMARK    2  A    between atoms: C_3  and  N_4
REMARK    3  A    between atoms: N_14  and  C_15
REMARK    4  A    between atoms: N_23  and  C_24
REMARK                            x       y       z     vdW  Elec       q    Type
REMARK                         _______ _______ _______ _____ _____    ______ ____
ROOT
ATOM      1  C   UNL     1      22.762   4.558  50.632  0.00  0.00    +0.000 A 
ATOM      2  C   UNL     1      21.439   4.330  51.001  0.00  0.00    +0.000 A 
ATOM      3  C   UNL     1      21.088   3.195  51.729  0.00  0.00    +0.000 A 
ATOM      4  C   UNL     1      22.030   2.265  52.116  0.00  0.00    +0.000 A 
ATOM      5  N   UNL     1      21.626   1.287  52.925  0.00  0.00    +0.000 NA
ATOM      6  C   UNL     1      22.561   0.446  53.362  0.00  0.00    +0.000 A 
ATOM      7  N   UNL     1      23.851   0.467  53.023  0.00  0.00    +0.000 NA
ATOM      8  C   UNL     1      24.243   1.440  52.176  0.00  0.00    +0.000 A 
ATOM      9  N   UNL     1      25.604   1.466  51.790  0.00  0.00    +0.000 N 
ATOM     10  C   UNL     1      23.354   2.416  51.678  0.00  0.00    +0.000 A 
ATOM     11  C   UNL     1      23.704   3.554  50.885  0.00  0.00    +0.000 A 
ATOM     12  H   UNL     1      25.800   1.769  50.874  0.00  0.00    +0.000 HD
ENDROOT
BRANCH   9  13
ATOM     13  C   UNL     1      26.713   1.102  52.587  0.00  0.00    +0.000 A 
ATOM     14  C   UNL     1      27.477   2.070  53.260  0.00  0.00    +0.000 A 
ATOM     15  C   UNL     1      28.688   1.740  53.876  0.00  0.00    +0.000 A 
ATOM     16  C   UNL     1      29.153   0.429  53.836  0.00  0.00    +0.000 A 
ATOM     17  C   UNL     1      28.384  -0.549  53.208  0.00  0.00    +0.000 A 
ATOM     18 BR   UNL     1      29.004  -2.336  53.168  0.00  0.00    +0.000 Br
ATOM     19  C   UNL     1      27.176  -0.221  52.585  0.00  0.00    +0.000 A 
ENDBRANCH   9  13
BRANCH   1  22
ATOM     20  O   UNL     1      24.485   6.531  51.873  0.00  0.00    +0.000 OA
ATOM     21  C   UNL     1      24.022   6.686  50.742  0.00  0.00    +0.000 C 
ATOM     22  N   UNL     1      23.177   5.793  50.081  0.00  0.00    +0.000 N 
ATOM     23  H   UNL     1      22.852   6.036  49.185  0.00  0.00    +0.000 HD
BRANCH  21  24
ATOM     24  C   UNL     1      24.359   7.951  49.969  0.00  0.00    +0.000 C 
BRANCH  24  25
ATOM     25  N   UNL     1      25.696   7.905  49.419  0.00  0.00    +0.000 N 
ATOM     26  S   UNL     1      26.281   6.515  48.606  0.00  0.00    +0.000 S 
ATOM     27  C   UNL     1      27.912   7.202  48.570  0.00  0.00    +0.000 A 
ATOM     28  C   UNL     1      29.069   6.628  48.072  0.00  0.00    +0.000 A 
ATOM     29  C   UNL     1      30.275   7.324  48.214  0.00  0.00    +0.000 A 
ATOM     30  C   UNL     1      30.312   8.577  48.849  0.00  0.00    +0.000 A 
ATOM     31  C   UNL     1      29.137   9.163  49.324  0.00  0.00    +0.000 A 
ATOM     32  C   UNL     1      27.952   8.465  49.165  0.00  0.00    +0.000 A 
ATOM     33  C   UNL     1      26.622   8.902  49.617  0.00  0.00    +0.000 A 
ATOM     34  O   UNL     1      26.388  10.012  50.085  0.00  0.00    +0.000 OA
ENDBRANCH  24  25
ENDBRANCH  21  24
ENDBRANCH   1  22
TORSDOF 4
ENDMDL
MODEL 6
REMARK VINA RESULT:    -9.367      1.650      2.143
REMARK INTER + INTRA:         -12.534
REMARK INTER:                 -11.698
REMARK INTRA:                  -0.835
REMARK UNBOUND:                -0.976
REMARK  Name = 
REMARK  4 active torsions:
REMARK  status: ('A' for Active; 'I' for Inactive)
REMARK    1  A    between atoms: C_2  and  C_3
REMARK    2  A    between atoms: C_3  and  N_4
REMARK    3  A    between atoms: N_14  and  C_15
REMARK    4  A    between atoms: N_23  and  C_24
REMARK                            x       y       z     vdW  Elec       q    Type
REMARK                         _______ _______ _______ _____ _____    ______ ____
ROOT
ATOM      1  C   UNL     1      21.997   3.821  52.034  0.00  0.00    +0.000 A 
ATOM      2  C   UNL     1      20.761   3.288  52.393  0.00  0.00    +0.000 A 
ATOM      3  C   UNL     1      20.658   1.977  52.852  0.00  0.00    +0.000 A 
ATOM      4  C   UNL     1      21.766   1.165  52.976  0.00  0.00    +0.000 A 
ATOM      5  N   UNL     1      21.591  -0.023  53.552  0.00  0.00    +0.000 NA
ATOM      6  C   UNL     1      22.682  -0.761  53.747  0.00  0.00    +0.000 A 
ATOM      7  N   UNL     1      23.921  -0.438  53.372  0.00  0.00    +0.000 NA
ATOM      8  C   UNL     1      24.081   0.751  52.757  0.00  0.00    +0.000 A 
ATOM      9  N   UNL     1      25.386   1.101  52.335  0.00  0.00    +0.000 N 
ATOM     10  C   UNL     1      23.009   1.640  52.534  0.00  0.00    +0.000 A 
ATOM     11  C   UNL     1      23.106   2.968  52.011  0.00  0.00    +0.000 A 
ATOM     12  H   UNL     1      25.457   1.628  51.506  0.00  0.00    +0.000 HD
ENDROOT
BRANCH   9  13
ATOM     13  C   UNL     1      26.598   0.772  52.982  0.00  0.00    +0.000 A 
ATOM     14  C   UNL     1      27.398   1.760  53.581  0.00  0.00    +0.000 A 
ATOM     15  C   UNL     1      28.688   1.472  54.037  0.00  0.00    +0.000 A 
ATOM     16  C   UNL     1      29.198   0.184  53.909  0.00  0.00    +0.000 A 
ATOM     17  C   UNL     1      28.400  -0.815  53.355  0.00  0.00    +0.000 A 
ATOM     18 BR   UNL     1      29.085  -2.571  53.196  0.00  0.00    +0.000 Br
ATOM     19  C   UNL     1      27.113  -0.529  52.892  0.00  0.00    +0.000 A 
ENDBRANCH   9  13
BRANCH   1  22
ATOM     20  O   UNL     1      21.367   5.210  49.569  0.00  0.00    +0.000 OA
ATOM     21  C   UNL     1      21.820   5.797  50.552  0.00  0.00    +0.000 C 
ATOM     22  N   UNL     1      22.161   5.201  51.768  0.00  0.00    +0.000 N 
ATOM     23  H   UNL     1      22.536   5.771  52.477  0.00  0.00    +0.000 HD
BRANCH  21  24
ATOM     24  C   UNL     1      22.061   7.296  50.477  0.00  0.00    +0.000 C 
BRANCH  24  25
ATOM     25  N   UNL     1      23.251   7.611  49.717  0.00  0.00    +0.000 N 
ATOM     26  S   UNL     1      23.156   8.360  48.178  0.00  0.00    +0.000 S 
ATOM     27  C   UNL     1      24.888   8.094  47.924  0.00  0.00    +0.000 A 
ATOM     28  C   UNL     1      25.644   8.408  46.807  0.00  0.00    +0.000 A 
ATOM     29  C   UNL     1      26.994   8.039  46.791  0.00  0.00    +0.000 A 
ATOM     30  C   UNL     1      27.570   7.364  47.880  0.00  0.00    +0.000 A 
ATOM     31  C   UNL     1      26.809   7.076  49.015  0.00  0.00    +0.000 A 
ATOM     32  C   UNL     1      25.478   7.458  49.019  0.00  0.00    +0.000 A 
ATOM     33  C   UNL     1      24.513   7.224  50.104  0.00  0.00    +0.000 A 
ATOM     34  O   UNL     1      24.813   6.766  51.201  0.00  0.00    +0.000 OA
ENDBRANCH  24  25
ENDBRANCH  21  24
ENDBRANCH   1  22
TORSDOF 4
ENDMDL
MODEL 7
REMARK VINA RESULT:    -9.302      3.948      9.170
REMARK INTER + INTRA:         -12.453
REMARK INTER:                 -11.697
REMARK INTRA:                  -0.756
REMARK UNBOUND:                -0.976
REMARK  Name = 
REMARK  4 active torsions:
REMARK  status: ('A' for Active; 'I' for Inactive)
REMARK    1  A    between atoms: C_2  and  C_3
REMARK    2  A    between atoms: C_3  and  N_4
REMARK    3  A    between atoms: N_14  and  C_15
REMARK    4  A    between atoms: N_23  and  C_24
REMARK                            x       y       z     vdW  Elec       q    Type
REMARK                         _______ _______ _______ _____ _____    ______ ____
ROOT
ATOM      1  C   UNL     1      24.996   4.793  49.425  0.00  0.00    +0.000 A 
ATOM      2  C   UNL     1      23.820   5.041  48.720  0.00  0.00    +0.000 A 
ATOM      3  C   UNL     1      23.653   6.229  48.011  0.00  0.00    +0.000 A 
ATOM      4  C   UNL     1      24.638   7.193  47.974  0.00  0.00    +0.000 A 
ATOM      5  N   UNL     1      24.446   8.231  47.162  0.00  0.00    +0.000 NA
ATOM      6  C   UNL     1      25.442   9.110  47.067  0.00  0.00    +0.000 A 
ATOM      7  N   UNL     1      26.588   9.069  47.749  0.00  0.00    +0.000 NA
ATOM      8  C   UNL     1      26.757   8.033  48.595  0.00  0.00    +0.000 A 
ATOM      9  N   UNL     1      27.958   7.985  49.342  0.00  0.00    +0.000 N 
ATOM     10  C   UNL     1      25.793   7.015  48.750  0.00  0.00    +0.000 A 
ATOM     11  C   UNL     1      25.941   5.819  49.521  0.00  0.00    +0.000 A 
ATOM     12  H   UNL     1      27.901   7.610  50.251  0.00  0.00    +0.000 HD
ENDROOT
BRANCH   9  13
ATOM     13  C   UNL     1      29.233   8.419  48.915  0.00  0.00    +0.000 A 
ATOM     14  C   UNL     1      29.792   9.619  49.385  0.00  0.00    +0.000 A 
ATOM     15  C   UNL     1      30.951  10.154  48.815  0.00  0.00    +0.000 A 
ATOM     16  C   UNL     1      31.579   9.489  47.767  0.00  0.00    +0.000 A 
ATOM     17  C   UNL     1      31.060   8.276  47.319  0.00  0.00    +0.000 A 
ATOM     18 BR   UNL     1      31.923   7.361  45.906  0.00  0.00    +0.000 Br
ATOM     19  C   UNL     1      29.897   7.742  47.882  0.00  0.00    +0.000 A 
ENDBRANCH   9  13
BRANCH   1  22
ATOM     20  O   UNL     1      24.638   3.962  52.179  0.00  0.00    +0.000 OA
ATOM     21  C   UNL     1      25.064   3.194  51.314  0.00  0.00    +0.000 C 
ATOM     22  N   UNL     1      25.276   3.520  49.973  0.00  0.00    +0.000 N 
ATOM     23  H   UNL     1      25.642   2.826  49.378  0.00  0.00    +0.000 HD
BRANCH  21  24
ATOM     24  C   UNL     1      25.417   1.766  51.697  0.00  0.00    +0.000 C 
BRANCH  24  25
ATOM     25  N   UNL     1      24.247   1.006  52.077  0.00  0.00    +0.000 N 
ATOM     26  S   UNL     1      22.742   1.231  51.290  0.00  0.00    +0.000 S 
ATOM     27  C   UNL     1      21.940   0.215  52.499  0.00  0.00    +0.000 A 
ATOM     28  C   UNL     1      20.593  -0.093  52.596  0.00  0.00    +0.000 A 
ATOM     29  C   UNL     1      20.162  -0.861  53.684  0.00  0.00    +0.000 A 
ATOM     30  C   UNL     1      21.073  -1.309  54.656  0.00  0.00    +0.000 A 
ATOM     31  C   UNL     1      22.433  -1.019  54.536  0.00  0.00    +0.000 A 
ATOM     32  C   UNL     1      22.844  -0.267  53.448  0.00  0.00    +0.000 A 
ATOM     33  C   UNL     1      24.222   0.160  53.161  0.00  0.00    +0.000 A 
ATOM     34  O   UNL     1      25.202  -0.213  53.798  0.00  0.00    +0.000 OA
ENDBRANCH  24  25
ENDBRANCH  21  24
ENDBRANCH   1  22
TORSDOF 4
ENDMDL
MODEL 8
REMARK VINA RESULT:    -9.134      2.284      3.183
REMARK INTER + INTRA:         -12.246
REMARK INTER:                 -11.473
REMARK INTRA:                  -0.773
REMARK UNBOUND:                -0.976
REMARK  Name = 
REMARK  4 active torsions:
REMARK  status: ('A' for Active; 'I' for Inactive)
REMARK    1  A    between atoms: C_2  and  C_3
REMARK    2  A    between atoms: C_3  and  N_4
REMARK    3  A    between atoms: N_14  and  C_15
REMARK    4  A    between atoms: N_23  and  C_24
REMARK                            x       y       z     vdW  Elec       q    Type
REMARK                         _______ _______ _______ _____ _____    ______ ____
ROOT
ATOM      1  C   UNL     1      21.126   1.982  51.856  0.00  0.00    +0.000 A 
ATOM      2  C   UNL     1      20.077   1.429  52.586  0.00  0.00    +0.000 A 
ATOM      3  C   UNL     1      20.315   0.436  53.533  0.00  0.00    +0.000 A 
ATOM      4  C   UNL     1      21.587  -0.030  53.788  0.00  0.00    +0.000 A 
ATOM      5  N   UNL     1      21.735  -0.878  54.804  0.00  0.00    +0.000 NA
ATOM      6  C   UNL     1      22.979  -1.252  55.097  0.00  0.00    +0.000 A 
ATOM      7  N   UNL     1      24.080  -0.893  54.433  0.00  0.00    +0.000 NA
ATOM      8  C   UNL     1      23.915  -0.061  53.385  0.00  0.00    +0.000 A 
ATOM      9  N   UNL     1      25.070   0.315  52.658  0.00  0.00    +0.000 N 
ATOM     10  C   UNL     1      22.652   0.438  53.004  0.00  0.00    +0.000 A 
ATOM     11  C   UNL     1      22.400   1.419  51.994  0.00  0.00    +0.000 A 
ATOM     12  H   UNL     1      24.958   0.451  51.689  0.00  0.00    +0.000 HD
ENDROOT
BRANCH   9  13
ATOM     13  C   UNL     1      26.367   0.516  53.181  0.00  0.00    +0.000 A 
ATOM     14  C   UNL     1      26.820   1.797  53.538  0.00  0.00    +0.000 A 
ATOM     15  C   UNL     1      28.161   2.031  53.857  0.00  0.00    +0.000 A 
ATOM     16  C   UNL     1      29.073   0.980  53.834  0.00  0.00    +0.000 A 
ATOM     17  C   UNL     1      28.629  -0.303  53.524  0.00  0.00    +0.000 A 
ATOM     18 BR   UNL     1      29.863  -1.736  53.509  0.00  0.00    +0.000 Br
ATOM     19  C   UNL     1      27.290  -0.539  53.196  0.00  0.00    +0.000 A 
ENDBRANCH   9  13
BRANCH   1  22
ATOM     20  O   UNL     1      22.022   4.680  52.426  0.00  0.00    +0.000 OA
ATOM     21  C   UNL     1      21.419   4.396  51.389  0.00  0.00    +0.000 C 
ATOM     22  N   UNL     1      20.944   3.129  51.048  0.00  0.00    +0.000 N 
ATOM     23  H   UNL     1      20.456   3.027  50.199  0.00  0.00    +0.000 HD
BRANCH  21  24
ATOM     24  C   UNL     1      21.131   5.490  50.374  0.00  0.00    +0.000 C 
BRANCH  24  25
ATOM     25  N   UNL     1      21.085   4.973  49.024  0.00  0.00    +0.000 N 
ATOM     26  S   UNL     1      22.489   4.915  48.042  0.00  0.00    +0.000 S 
ATOM     27  C   UNL     1      21.506   4.475  46.636  0.00  0.00    +0.000 A 
ATOM     28  C   UNL     1      21.926   4.269  45.333  0.00  0.00    +0.000 A 
ATOM     29  C   UNL     1      20.961   3.999  44.356  0.00  0.00    +0.000 A 
ATOM     30  C   UNL     1      19.597   3.940  44.688  0.00  0.00    +0.000 A 
ATOM     31  C   UNL     1      19.183   4.122  46.009  0.00  0.00    +0.000 A 
ATOM     32  C   UNL     1      20.152   4.377  46.964  0.00  0.00    +0.000 A 
ATOM     33  C   UNL     1      19.915   4.618  48.396  0.00  0.00    +0.000 A 
ATOM     34  O   UNL     1      18.822   4.496  48.940  0.00  0.00    +0.000 OA
ENDBRANCH  24  25
ENDBRANCH  21  24
ENDBRANCH   1  22
TORSDOF 4
ENDMDL
MODEL 9
REMARK VINA RESULT:    -9.126      1.622      2.107
REMARK INTER + INTRA:         -12.237
REMARK INTER:                 -11.458
REMARK INTRA:                  -0.779
REMARK UNBOUND:                -0.976
REMARK  Name = 
REMARK  4 active torsions:
REMARK  status: ('A' for Active; 'I' for Inactive)
REMARK    1  A    between atoms: C_2  and  C_3
REMARK    2  A    between atoms: C_3  and  N_4
REMARK    3  A    between atoms: N_14  and  C_15
REMARK    4  A    between atoms: N_23  and  C_24
REMARK                            x       y       z     vdW  Elec       q    Type
REMARK                         _______ _______ _______ _____ _____    ______ ____
ROOT
ATOM      1  C   UNL     1      21.471   1.740  52.265  0.00  0.00    +0.000 A 
ATOM      2  C   UNL     1      20.496   1.429  53.209  0.00  0.00    +0.000 A 
ATOM      3  C   UNL     1      20.732   0.461  54.183  0.00  0.00    +0.000 A 
ATOM      4  C   UNL     1      21.930  -0.216  54.254  0.00  0.00    +0.000 A 
ATOM      5  N   UNL     1      22.117  -1.021  55.298  0.00  0.00    +0.000 NA
ATOM      6  C   UNL     1      23.311  -1.601  55.403  0.00  0.00    +0.000 A 
ATOM      7  N   UNL     1      24.315  -1.485  54.532  0.00  0.00    +0.000 NA
ATOM      8  C   UNL     1      24.103  -0.696  53.460  0.00  0.00    +0.000 A 
ATOM      9  N   UNL     1      25.151  -0.577  52.515  0.00  0.00    +0.000 N 
ATOM     10  C   UNL     1      22.896   0.006  53.261  0.00  0.00    +0.000 A 
ATOM     11  C   UNL     1      22.633   0.961  52.229  0.00  0.00    +0.000 A 
ATOM     12  H   UNL     1      24.887  -0.475  51.572  0.00  0.00    +0.000 HD
ENDROOT
BRANCH   9  13
ATOM     13  C   UNL     1      26.537  -0.590  52.788  0.00  0.00    +0.000 A 
ATOM     14  C   UNL     1      27.270  -1.789  52.791  0.00  0.00    +0.000 A 
ATOM     15  C   UNL     1      28.586  -1.834  53.259  0.00  0.00    +0.000 A 
ATOM     16  C   UNL     1      29.198  -0.674  53.726  0.00  0.00    +0.000 A 
ATOM     17  C   UNL     1      28.497   0.529  53.689  0.00  0.00    +0.000 A 
ATOM     18 BR   UNL     1      29.331   2.111  54.307  0.00  0.00    +0.000 Br
ATOM     19  C   UNL     1      27.178   0.577  53.229  0.00  0.00    +0.000 A 
ENDBRANCH   9  13
BRANCH   1  22
ATOM     20  O   UNL     1      20.497   1.734  49.534  0.00  0.00    +0.000 OA
ATOM     21  C   UNL     1      20.850   2.770  50.101  0.00  0.00    +0.000 C 
ATOM     22  N   UNL     1      21.341   2.855  51.404  0.00  0.00    +0.000 N 
ATOM     23  H   UNL     1      21.613   3.739  51.742  0.00  0.00    +0.000 HD
BRANCH  21  24
ATOM     24  C   UNL     1      20.777   4.089  49.349  0.00  0.00    +0.000 C 
BRANCH  24  25
ATOM     25  N   UNL     1      21.876   4.965  49.693  0.00  0.00    +0.000 N 
ATOM     26  S   UNL     1      21.604   6.516  50.369  0.00  0.00    +0.000 S 
ATOM     27  C   UNL     1      23.319   6.915  50.184  0.00  0.00    +0.000 A 
ATOM     28  C   UNL     1      23.955   8.107  50.489  0.00  0.00    +0.000 A 
ATOM     29  C   UNL     1      25.317   8.232  50.190  0.00  0.00    +0.000 A 
ATOM     30  C   UNL     1      26.023   7.174  49.593  0.00  0.00    +0.000 A 
ATOM     31  C   UNL     1      25.382   5.965  49.314  0.00  0.00    +0.000 A 
ATOM     32  C   UNL     1      24.038   5.855  49.626  0.00  0.00    +0.000 A 
ATOM     33  C   UNL     1      23.187   4.679  49.389  0.00  0.00    +0.000 A 
ATOM     34  O   UNL     1      23.608   3.597  48.994  0.00  0.00    +0.000 OA
ENDBRANCH  24  25
ENDBRANCH  21  24
ENDBRANCH   1  22
TORSDOF 4
ENDMDL
