REMARK  Name = 
REMARK  6 active torsions:
REMARK  status: ('A' for Active; 'I' for Inactive)
REMARK    1  A    between atoms: C_2  and  C_3
REMARK    2  A    between atoms: C_8  and  O_9
REMARK    3  A    between atoms: O_9  and  C_10
REMARK    4  A    between atoms: N_13  and  C_14
REMARK    5  A    between atoms: C_17  and  N_18
REMARK    6  A    between atoms: N_21  and  C_22
REMARK                            x       y       z     vdW  Elec       q    Type
REMARK                         _______ _______ _______ _____ _____    ______ ____
ROOT
ATOM      1  C   UNL     1      -5.612   1.690   2.233  0.00  0.00    +0.000 A 
ATOM      2  N   UNL     1      -5.436   2.618   3.197  0.00  0.00    +0.000 NA
ATOM      3  C   UNL     1      -5.695   3.889   2.867  0.00  0.00    +0.000 A 
ATOM      4  N   UNL     1      -5.582   4.826   3.882  0.00  0.00    +0.000 N 
ATOM      5  N   UNL     1      -6.114   4.268   1.648  0.00  0.00    +0.000 NA
ATOM      6  C   UNL     1      -6.365   3.296   0.748  0.00  0.00    +0.000 A 
ATOM      7  C   UNL     1      -6.149   1.965   0.993  0.00  0.00    +0.000 A 
ATOM      8 CL   UNL     1      -6.514   0.778  -0.186  0.00  0.00    +0.000 Cl
ATOM      9  H   UNL     1      -5.631   4.461   4.795  0.00  0.00    +0.000 HD
ENDROOT
BRANCH   4  10
ATOM     10  C   UNL     1      -5.408   6.207   3.804  0.00  0.00    +0.000 A 
ATOM     11  C   UNL     1      -6.061   7.034   4.714  0.00  0.00    +0.000 A 
ATOM     12  C   UNL     1      -5.933   8.424   4.631  0.00  0.00    +0.000 A 
ATOM     13  C   UNL     1      -5.136   9.040   3.655  0.00  0.00    +0.000 A 
ATOM     14  C   UNL     1      -4.494   8.197   2.743  0.00  0.00    +0.000 A 
ATOM     15  C   UNL     1      -4.645   6.806   2.801  0.00  0.00    +0.000 A 
BRANCH  13  16
ATOM     16  N   UNL     1      -4.963  10.408   3.658  0.00  0.00    +0.000 N 
ATOM     17  C   UNL     1      -3.787  11.058   3.066  0.00  0.00    +0.000 C 
ATOM     18  C   UNL     1      -3.406  12.289   3.926  0.00  0.00    +0.000 C 
ATOM     19  N   UNL     1      -4.528  13.241   4.110  0.00  0.00    +0.000 N 
ATOM     20  C   UNL     1      -4.130  14.341   4.984  0.00  0.00    +0.000 C 
ATOM     21  C   UNL     1      -5.690  12.521   4.683  0.00  0.00    +0.000 C 
ATOM     22  C   UNL     1      -6.114  11.310   3.822  0.00  0.00    +0.000 C 
ATOM     23  H   UNL     1      -4.786  13.635   3.205  0.00  0.00    +0.000 HD
ENDBRANCH  13  16
ENDBRANCH   4  10
BRANCH   1  24
ATOM     24  O   UNL     1      -5.207   0.394   2.492  0.00  0.00    +0.000 OA
BRANCH  24  30
ATOM     25  C   UNL     1      -0.633  -1.671   3.867  0.00  0.00    +0.000 C 
ATOM     26  O   UNL     1      -0.720  -2.887   3.747  0.00  0.00    +0.000 OA
ATOM     27  N   UNL     1      -1.667  -0.869   4.330  0.00  0.00    +0.000 N 
ATOM     28  C   UNL     1      -2.909  -1.511   4.761  0.00  0.00    +0.000 C 
ATOM     29  C   UNL     1      -4.026  -1.249   3.758  0.00  0.00    +0.000 C 
ATOM     30  C   UNL     1      -4.212   0.258   3.522  0.00  0.00    +0.000 C 
ATOM     31  C   UNL     1      -2.866   0.886   3.113  0.00  0.00    +0.000 C 
ATOM     32  C   UNL     1      -1.775   0.574   4.132  0.00  0.00    +0.000 C 
BRANCH  25  34
ATOM     33  C   UNL     1       1.450  -1.456   2.582  0.00  0.00    +0.000 C 
ATOM     34  C   UNL     1       0.641  -0.977   3.538  0.00  0.00    +0.000 C 
ENDBRANCH  25  34
ENDBRANCH  24  30
ENDBRANCH   1  24
TORSDOF 5
