MODEL 1
REMARK VINA RESULT:   -10.482      0.000      0.000
REMARK INTER + INTRA:         -13.078
REMARK INTER:                 -12.320
REMARK INTRA:                  -0.758
REMARK UNBOUND:                -0.758
REMARK  Name = 
REMARK  3 active torsions:
REMARK  status: ('A' for Active; 'I' for Inactive)
REMARK    1  A    between atoms: C_5  and  C_6
REMARK    2  A    between atoms: N_8  and  C_9
REMARK    3  A    between atoms: C_15  and  C_16
REMARK                            x       y       z     vdW  Elec       q    Type
REMARK                         _______ _______ _______ _____ _____    ______ ____
ROOT
ATOM      1  C   UNL     1      22.425   0.951  52.426  0.00  0.00    +0.000 C 
ATOM      2  N   UNL     1      23.475   0.218  52.648  0.00  0.00    +0.000 NA
ATOM      3  N   UNL     1      24.569   1.038  52.536  0.00  0.00    +0.000 N 
ATOM      4  C   UNL     1      24.210   2.446  52.367  0.00  0.00    +0.000 C 
ATOM      5  C   UNL     1      22.706   2.388  52.100  0.00  0.00    +0.000 C 
ENDROOT
BRANCH   4   6
ATOM      6  C   UNL     1      24.928   3.135  51.219  0.00  0.00    +0.000 A 
ATOM      7  C   UNL     1      25.894   2.426  50.494  0.00  0.00    +0.000 A 
ATOM      8  C   UNL     1      26.706   3.082  49.566  0.00  0.00    +0.000 A 
ATOM      9  C   UNL     1      26.565   4.459  49.343  0.00  0.00    +0.000 A 
ATOM     10  C   UNL     1      27.469   5.164  48.530  0.00  0.00    +0.000 A 
ATOM     11  C   UNL     1      27.313   6.535  48.318  0.00  0.00    +0.000 A 
ATOM     12  C   UNL     1      26.216   7.202  48.855  0.00  0.00    +0.000 A 
ATOM     13  C   UNL     1      25.315   6.516  49.672  0.00  0.00    +0.000 A 
ATOM     14  C   UNL     1      25.513   5.158  49.968  0.00  0.00    +0.000 A 
ATOM     15  C   UNL     1      24.715   4.490  50.910  0.00  0.00    +0.000 A 
ENDBRANCH   4   6
BRANCH   1  20
ATOM     16 BR   UNL     1      16.651  -1.235  52.523  0.00  0.00    +0.000 Br
ATOM     17  C   UNL     1      18.415  -0.561  52.503  0.00  0.00    +0.000 A 
ATOM     18  C   UNL     1      18.843   0.237  51.444  0.00  0.00    +0.000 A 
ATOM     19  C   UNL     1      20.151   0.734  51.430  0.00  0.00    +0.000 A 
ATOM     20  C   UNL     1      21.035   0.429  52.474  0.00  0.00    +0.000 A 
ATOM     21  C   UNL     1      20.591  -0.369  53.537  0.00  0.00    +0.000 A 
ATOM     22  C   UNL     1      19.282  -0.864  53.550  0.00  0.00    +0.000 A 
ENDBRANCH   1  20
BRANCH   3  23
ATOM     23  C   UNL     1      25.816   0.610  53.001  0.00  0.00    +0.000 A 
ATOM     24  C   UNL     1      26.324  -0.643  52.627  0.00  0.00    +0.000 A 
ATOM     25  C   UNL     1      27.595  -1.071  53.030  0.00  0.00    +0.000 A 
ATOM     26  C   UNL     1      28.383  -0.252  53.831  0.00  0.00    +0.000 A 
ATOM     27  C   UNL     1      27.903   0.991  54.226  0.00  0.00    +0.000 A 
ATOM     28  C   UNL     1      26.637   1.414  53.810  0.00  0.00    +0.000 A 
ENDBRANCH   3  23
TORSDOF 3
ENDMDL
MODEL 2
REMARK VINA RESULT:   -10.371      3.011      6.218
REMARK INTER + INTRA:         -12.948
REMARK INTER:                 -12.753
REMARK INTRA:                  -0.195
REMARK UNBOUND:                -0.758
REMARK  Name = 
REMARK  3 active torsions:
REMARK  status: ('A' for Active; 'I' for Inactive)
REMARK    1  A    between atoms: C_5  and  C_6
REMARK    2  A    between atoms: N_8  and  C_9
REMARK    3  A    between atoms: C_15  and  C_16
REMARK                            x       y       z     vdW  Elec       q    Type
REMARK                         _______ _______ _______ _____ _____    ______ ____
ROOT
ATOM      1  C   UNL     1      23.298   2.403  50.506  0.00  0.00    +0.000 C 
ATOM      2  N   UNL     1      22.678   1.364  50.981  0.00  0.00    +0.000 NA
ATOM      3  N   UNL     1      23.247   1.075  52.195  0.00  0.00    +0.000 N 
ATOM      4  C   UNL     1      24.220   2.080  52.620  0.00  0.00    +0.000 C 
ATOM      5  C   UNL     1      24.411   2.929  51.363  0.00  0.00    +0.000 C 
ENDROOT
BRANCH   4   6
ATOM      6  C   UNL     1      25.548   1.501  53.079  0.00  0.00    +0.000 A 
ATOM      7  C   UNL     1      26.493   2.348  53.674  0.00  0.00    +0.000 A 
ATOM      8  C   UNL     1      27.789   1.894  53.929  0.00  0.00    +0.000 A 
ATOM      9  C   UNL     1      28.164   0.583  53.597  0.00  0.00    +0.000 A 
ATOM     10  C   UNL     1      29.499   0.157  53.703  0.00  0.00    +0.000 A 
ATOM     11  C   UNL     1      29.855  -1.151  53.369  0.00  0.00    +0.000 A 
ATOM     12  C   UNL     1      28.874  -2.065  52.995  0.00  0.00    +0.000 A 
ATOM     13  C   UNL     1      27.546  -1.652  52.876  0.00  0.00    +0.000 A 
ATOM     14  C   UNL     1      27.190  -0.315  53.119  0.00  0.00    +0.000 A 
ATOM     15  C   UNL     1      25.896   0.158  52.853  0.00  0.00    +0.000 A 
ENDBRANCH   4   6
BRANCH   1  20
ATOM     16 BR   UNL     1      21.806   4.983  45.099  0.00  0.00    +0.000 Br
ATOM     17  C   UNL     1      22.273   4.198  46.751  0.00  0.00    +0.000 A 
ATOM     18  C   UNL     1      22.080   2.832  46.951  0.00  0.00    +0.000 A 
ATOM     19  C   UNL     1      22.425   2.252  48.177  0.00  0.00    +0.000 A 
ATOM     20  C   UNL     1      22.959   3.039  49.207  0.00  0.00    +0.000 A 
ATOM     21  C   UNL     1      23.155   4.409  48.992  0.00  0.00    +0.000 A 
ATOM     22  C   UNL     1      22.811   4.987  47.765  0.00  0.00    +0.000 A 
ENDBRANCH   1  20
BRANCH   3  23
ATOM     23  C   UNL     1      22.609   0.196  53.075  0.00  0.00    +0.000 A 
ATOM     24  C   UNL     1      21.247  -0.102  52.923  0.00  0.00    +0.000 A 
ATOM     25  C   UNL     1      20.598  -1.024  53.753  0.00  0.00    +0.000 A 
ATOM     26  C   UNL     1      21.304  -1.662  54.768  0.00  0.00    +0.000 A 
ATOM     27  C   UNL     1      22.653  -1.381  54.949  0.00  0.00    +0.000 A 
ATOM     28  C   UNL     1      23.294  -0.466  54.108  0.00  0.00    +0.000 A 
ENDBRANCH   3  23
TORSDOF 3
ENDMDL
MODEL 3
REMARK VINA RESULT:   -10.281      3.106      7.292
REMARK INTER + INTRA:         -12.842
REMARK INTER:                 -12.353
REMARK INTRA:                  -0.489
REMARK UNBOUND:                -0.758
REMARK  Name = 
REMARK  3 active torsions:
REMARK  status: ('A' for Active; 'I' for Inactive)
REMARK    1  A    between atoms: C_5  and  C_6
REMARK    2  A    between atoms: N_8  and  C_9
REMARK    3  A    between atoms: C_15  and  C_16
REMARK                            x       y       z     vdW  Elec       q    Type
REMARK                         _______ _______ _______ _____ _____    ______ ____
ROOT
ATOM      1  C   UNL     1      26.130   3.300  50.562  0.00  0.00    +0.000 C 
ATOM      2  N   UNL     1      26.979   2.930  51.474  0.00  0.00    +0.000 NA
ATOM      3  N   UNL     1      26.533   1.736  51.979  0.00  0.00    +0.000 N 
ATOM      4  C   UNL     1      25.381   1.206  51.252  0.00  0.00    +0.000 C 
ATOM      5  C   UNL     1      24.962   2.380  50.367  0.00  0.00    +0.000 C 
ENDROOT
BRANCH   4   6
ATOM      6  C   UNL     1      24.229   0.775  52.145  0.00  0.00    +0.000 A 
ATOM      7  C   UNL     1      24.508   0.091  53.336  0.00  0.00    +0.000 A 
ATOM      8  C   UNL     1      23.475  -0.486  54.079  0.00  0.00    +0.000 A 
ATOM      9  C   UNL     1      22.144  -0.388  53.647  0.00  0.00    +0.000 A 
ATOM     10  C   UNL     1      21.113  -1.088  54.295  0.00  0.00    +0.000 A 
ATOM     11  C   UNL     1      19.793  -0.978  53.853  0.00  0.00    +0.000 A 
ATOM     12  C   UNL     1      19.480  -0.115  52.807  0.00  0.00    +0.000 A 
ATOM     13  C   UNL     1      20.496   0.580  52.148  0.00  0.00    +0.000 A 
ATOM     14  C   UNL     1      21.838   0.406  52.524  0.00  0.00    +0.000 A 
ATOM     15  C   UNL     1      22.886   0.967  51.777  0.00  0.00    +0.000 A 
ENDBRANCH   4   6
BRANCH   1  20
ATOM     16 BR   UNL     1      26.773   8.419  47.170  0.00  0.00    +0.000 Br
ATOM     17  C   UNL     1      26.575   6.860  48.217  0.00  0.00    +0.000 A 
ATOM     18  C   UNL     1      27.600   5.917  48.261  0.00  0.00    +0.000 A 
ATOM     19  C   UNL     1      27.450   4.762  49.036  0.00  0.00    +0.000 A 
ATOM     20  C   UNL     1      26.273   4.545  49.764  0.00  0.00    +0.000 A 
ATOM     21  C   UNL     1      25.252   5.503  49.718  0.00  0.00    +0.000 A 
ATOM     22  C   UNL     1      25.403   6.659  48.944  0.00  0.00    +0.000 A 
ENDBRANCH   1  20
BRANCH   3  23
ATOM     23  C   UNL     1      27.380   0.948  52.764  0.00  0.00    +0.000 A 
ATOM     24  C   UNL     1      27.585  -0.405  52.455  0.00  0.00    +0.000 A 
ATOM     25  C   UNL     1      28.474  -1.201  53.188  0.00  0.00    +0.000 A 
ATOM     26  C   UNL     1      29.171  -0.656  54.262  0.00  0.00    +0.000 A 
ATOM     27  C   UNL     1      28.981   0.678  54.598  0.00  0.00    +0.000 A 
ATOM     28  C   UNL     1      28.100   1.468  53.853  0.00  0.00    +0.000 A 
ENDBRANCH   3  23
TORSDOF 3
ENDMDL
MODEL 4
REMARK VINA RESULT:    -9.783      1.546      5.079
REMARK INTER + INTRA:         -12.256
REMARK INTER:                 -11.475
REMARK INTRA:                  -0.781
REMARK UNBOUND:                -0.758
REMARK  Name = 
REMARK  3 active torsions:
REMARK  status: ('A' for Active; 'I' for Inactive)
REMARK    1  A    between atoms: C_5  and  C_6
REMARK    2  A    between atoms: N_8  and  C_9
REMARK    3  A    between atoms: C_15  and  C_16
REMARK                            x       y       z     vdW  Elec       q    Type
REMARK                         _______ _______ _______ _____ _____    ______ ____
ROOT
ATOM      1  C   UNL     1      21.640   0.962  52.032  0.00  0.00    +0.000 C 
ATOM      2  N   UNL     1      21.847   2.245  51.986  0.00  0.00    +0.000 NA
ATOM      3  N   UNL     1      23.194   2.429  51.805  0.00  0.00    +0.000 N 
ATOM      4  C   UNL     1      23.914   1.178  51.574  0.00  0.00    +0.000 C 
ATOM      5  C   UNL     1      22.871   0.113  51.914  0.00  0.00    +0.000 C 
ENDROOT
BRANCH   4   6
ATOM      6  C   UNL     1      25.152   1.007  52.438  0.00  0.00    +0.000 A 
ATOM      7  C   UNL     1      25.559   2.063  53.264  0.00  0.00    +0.000 A 
ATOM      8  C   UNL     1      26.791   2.013  53.921  0.00  0.00    +0.000 A 
ATOM      9  C   UNL     1      27.638   0.906  53.767  0.00  0.00    +0.000 A 
ATOM     10  C   UNL     1      28.940   0.904  54.292  0.00  0.00    +0.000 A 
ATOM     11  C   UNL     1      29.769  -0.208  54.131  0.00  0.00    +0.000 A 
ATOM     12  C   UNL     1      29.284  -1.353  53.506  0.00  0.00    +0.000 A 
ATOM     13  C   UNL     1      27.995  -1.361  52.970  0.00  0.00    +0.000 A 
ATOM     14  C   UNL     1      27.185  -0.217  53.045  0.00  0.00    +0.000 A 
ATOM     15  C   UNL     1      25.952  -0.147  52.378  0.00  0.00    +0.000 A 
ENDBRANCH   4   6
BRANCH   1  20
ATOM     16 BR   UNL     1      16.050  -1.590  52.632  0.00  0.00    +0.000 Br
ATOM     17  C   UNL     1      17.758  -0.804  52.459  0.00  0.00    +0.000 A 
ATOM     18  C   UNL     1      18.051  -0.014  51.348  0.00  0.00    +0.000 A 
ATOM     19  C   UNL     1      19.318   0.566  51.221  0.00  0.00    +0.000 A 
ATOM     20  C   UNL     1      20.296   0.353  52.201  0.00  0.00    +0.000 A 
ATOM     21  C   UNL     1      19.988  -0.438  53.316  0.00  0.00    +0.000 A 
ATOM     22  C   UNL     1      18.721  -1.016  53.444  0.00  0.00    +0.000 A 
ENDBRANCH   1  20
BRANCH   3  23
ATOM     23  C   UNL     1      23.684   3.683  51.428  0.00  0.00    +0.000 A 
ATOM     24  C   UNL     1      24.448   3.828  50.260  0.00  0.00    +0.000 A 
ATOM     25  C   UNL     1      24.900   5.081  49.827  0.00  0.00    +0.000 A 
ATOM     26  C   UNL     1      24.603   6.220  50.568  0.00  0.00    +0.000 A 
ATOM     27  C   UNL     1      23.856   6.108  51.733  0.00  0.00    +0.000 A 
ATOM     28  C   UNL     1      23.400   4.854  52.152  0.00  0.00    +0.000 A 
ENDBRANCH   3  23
TORSDOF 3
ENDMDL
MODEL 5
REMARK VINA RESULT:    -9.552      3.207      7.720
REMARK INTER + INTRA:         -11.985
REMARK INTER:                 -10.817
REMARK INTRA:                  -1.168
REMARK UNBOUND:                -0.758
REMARK  Name = 
REMARK  3 active torsions:
REMARK  status: ('A' for Active; 'I' for Inactive)
REMARK    1  A    between atoms: C_5  and  C_6
REMARK    2  A    between atoms: N_8  and  C_9
REMARK    3  A    between atoms: C_15  and  C_16
REMARK                            x       y       z     vdW  Elec       q    Type
REMARK                         _______ _______ _______ _____ _____    ______ ____
ROOT
ATOM      1  C   UNL     1      25.454   2.515  52.349  0.00  0.00    +0.000 C 
ATOM      2  N   UNL     1      25.531   3.406  51.405  0.00  0.00    +0.000 NA
ATOM      3  N   UNL     1      24.320   4.048  51.358  0.00  0.00    +0.000 N 
ATOM      4  C   UNL     1      23.423   3.652  52.442  0.00  0.00    +0.000 C 
ATOM      5  C   UNL     1      24.127   2.436  53.045  0.00  0.00    +0.000 C 
ENDROOT
BRANCH   4   6
ATOM      6  C   UNL     1      22.022   3.281  51.983  0.00  0.00    +0.000 A 
ATOM      7  C   UNL     1      21.092   4.300  51.742  0.00  0.00    +0.000 A 
ATOM      8  C   UNL     1      19.749   3.992  51.507  0.00  0.00    +0.000 A 
ATOM      9  C   UNL     1      19.313   2.659  51.507  0.00  0.00    +0.000 A 
ATOM     10  C   UNL     1      17.948   2.338  51.427  0.00  0.00    +0.000 A 
ATOM     11  C   UNL     1      17.531   1.005  51.427  0.00  0.00    +0.000 A 
ATOM     12  C   UNL     1      18.473  -0.019  51.436  0.00  0.00    +0.000 A 
ATOM     13  C   UNL     1      19.832   0.286  51.525  0.00  0.00    +0.000 A 
ATOM     14  C   UNL     1      20.259   1.621  51.619  0.00  0.00    +0.000 A 
ATOM     15  C   UNL     1      21.602   1.945  51.869  0.00  0.00    +0.000 A 
ENDBRANCH   4   6
BRANCH   1  20
ATOM     16 BR   UNL     1      30.100  -1.272  53.831  0.00  0.00    +0.000 Br
ATOM     17  C   UNL     1      28.679  -0.110  53.389  0.00  0.00    +0.000 A 
ATOM     18  C   UNL     1      27.494  -0.627  52.868  0.00  0.00    +0.000 A 
ATOM     19  C   UNL     1      26.443   0.236  52.540  0.00  0.00    +0.000 A 
ATOM     20  C   UNL     1      26.577   1.618  52.726  0.00  0.00    +0.000 A 
ATOM     21  C   UNL     1      27.770   2.126  53.256  0.00  0.00    +0.000 A 
ATOM     22  C   UNL     1      28.820   1.262  53.585  0.00  0.00    +0.000 A 
ENDBRANCH   1  20
BRANCH   3  23
ATOM     23  C   UNL     1      24.190   5.245  50.647  0.00  0.00    +0.000 A 
ATOM     24  C   UNL     1      24.088   5.235  49.247  0.00  0.00    +0.000 A 
ATOM     25  C   UNL     1      23.897   6.413  48.516  0.00  0.00    +0.000 A 
ATOM     26  C   UNL     1      23.816   7.635  49.175  0.00  0.00    +0.000 A 
ATOM     27  C   UNL     1      23.923   7.678  50.560  0.00  0.00    +0.000 A 
ATOM     28  C   UNL     1      24.103   6.495  51.282  0.00  0.00    +0.000 A 
ENDBRANCH   3  23
TORSDOF 3
ENDMDL
MODEL 6
REMARK VINA RESULT:    -9.519      3.495      7.918
REMARK INTER + INTRA:         -11.946
REMARK INTER:                 -10.829
REMARK INTRA:                  -1.117
REMARK UNBOUND:                -0.758
REMARK  Name = 
REMARK  3 active torsions:
REMARK  status: ('A' for Active; 'I' for Inactive)
REMARK    1  A    between atoms: C_5  and  C_6
REMARK    2  A    between atoms: N_8  and  C_9
REMARK    3  A    between atoms: C_15  and  C_16
REMARK                            x       y       z     vdW  Elec       q    Type
REMARK                         _______ _______ _______ _____ _____    ______ ____
ROOT
ATOM      1  C   UNL     1      23.923   2.958  50.270  0.00  0.00    +0.000 C 
ATOM      2  N   UNL     1      23.941   2.503  51.487  0.00  0.00    +0.000 NA
ATOM      3  N   UNL     1      22.835   1.704  51.634  0.00  0.00    +0.000 N 
ATOM      4  C   UNL     1      22.107   1.504  50.382  0.00  0.00    +0.000 C 
ATOM      5  C   UNL     1      22.747   2.527  49.444  0.00  0.00    +0.000 C 
ENDROOT
BRANCH   4   6
ATOM      6  C   UNL     1      20.610   1.743  50.490  0.00  0.00    +0.000 A 
ATOM      7  C   UNL     1      20.148   3.009  50.871  0.00  0.00    +0.000 A 
ATOM      8  C   UNL     1      18.797   3.210  51.166  0.00  0.00    +0.000 A 
ATOM      9  C   UNL     1      17.883   2.149  51.084  0.00  0.00    +0.000 A 
ATOM     10  C   UNL     1      16.556   2.293  51.523  0.00  0.00    +0.000 A 
ATOM     11  C   UNL     1      15.660   1.226  51.433  0.00  0.00    +0.000 A 
ATOM     12  C   UNL     1      16.057   0.031  50.841  0.00  0.00    +0.000 A 
ATOM     13  C   UNL     1      17.375  -0.128  50.409  0.00  0.00    +0.000 A 
ATOM     14  C   UNL     1      18.311   0.905  50.579  0.00  0.00    +0.000 A 
ATOM     15  C   UNL     1      19.673   0.713  50.301  0.00  0.00    +0.000 A 
ENDBRANCH   4   6
BRANCH   1  20
ATOM     16 BR   UNL     1      28.233   6.755  48.004  0.00  0.00    +0.000 Br
ATOM     17  C   UNL     1      26.917   5.586  48.689  0.00  0.00    +0.000 A 
ATOM     18  C   UNL     1      25.602   6.025  48.828  0.00  0.00    +0.000 A 
ATOM     19  C   UNL     1      24.628   5.159  49.336  0.00  0.00    +0.000 A 
ATOM     20  C   UNL     1      24.970   3.852  49.712  0.00  0.00    +0.000 A 
ATOM     21  C   UNL     1      26.294   3.420  49.562  0.00  0.00    +0.000 A 
ATOM     22  C   UNL     1      27.266   4.287  49.051  0.00  0.00    +0.000 A 
ENDBRANCH   1  20
BRANCH   3  23
ATOM     23  C   UNL     1      22.733   0.846  52.733  0.00  0.00    +0.000 A 
ATOM     24  C   UNL     1      21.535   0.754  53.458  0.00  0.00    +0.000 A 
ATOM     25  C   UNL     1      21.387  -0.141  54.524  0.00  0.00    +0.000 A 
ATOM     26  C   UNL     1      22.448  -0.960  54.896  0.00  0.00    +0.000 A 
ATOM     27  C   UNL     1      23.650  -0.885  54.204  0.00  0.00    +0.000 A 
ATOM     28  C   UNL     1      23.785   0.004  53.134  0.00  0.00    +0.000 A 
ENDBRANCH   3  23
TORSDOF 3
ENDMDL
MODEL 7
REMARK VINA RESULT:    -9.472      3.994      8.692
REMARK INTER + INTRA:         -11.891
REMARK INTER:                 -10.631
REMARK INTRA:                  -1.260
REMARK UNBOUND:                -0.758
REMARK  Name = 
REMARK  3 active torsions:
REMARK  status: ('A' for Active; 'I' for Inactive)
REMARK    1  A    between atoms: C_5  and  C_6
REMARK    2  A    between atoms: N_8  and  C_9
REMARK    3  A    between atoms: C_15  and  C_16
REMARK                            x       y       z     vdW  Elec       q    Type
REMARK                         _______ _______ _______ _____ _____    ______ ____
ROOT
ATOM      1  C   UNL     1      25.100   4.860  49.520  0.00  0.00    +0.000 C 
ATOM      2  N   UNL     1      24.092   4.489  48.788  0.00  0.00    +0.000 NA
ATOM      3  N   UNL     1      23.141   3.984  49.638  0.00  0.00    +0.000 N 
ATOM      4  C   UNL     1      23.486   4.163  51.047  0.00  0.00    +0.000 C 
ATOM      5  C   UNL     1      24.947   4.610  50.991  0.00  0.00    +0.000 C 
ENDROOT
BRANCH   4   6
ATOM      6  C   UNL     1      23.347   2.902  51.884  0.00  0.00    +0.000 A 
ATOM      7  C   UNL     1      24.470   2.090  52.087  0.00  0.00    +0.000 A 
ATOM      8  C   UNL     1      24.338   0.833  52.683  0.00  0.00    +0.000 A 
ATOM      9  C   UNL     1      23.080   0.366  53.089  0.00  0.00    +0.000 A 
ATOM     10  C   UNL     1      22.903  -0.950  53.548  0.00  0.00    +0.000 A 
ATOM     11  C   UNL     1      21.643  -1.399  53.950  0.00  0.00    +0.000 A 
ATOM     12  C   UNL     1      20.564  -0.520  53.966  0.00  0.00    +0.000 A 
ATOM     13  C   UNL     1      20.724   0.788  53.504  0.00  0.00    +0.000 A 
ATOM     14  C   UNL     1      21.964   1.223  53.010  0.00  0.00    +0.000 A 
ATOM     15  C   UNL     1      22.108   2.477  52.395  0.00  0.00    +0.000 A 
ENDBRANCH   4   6
BRANCH   1  20
ATOM     16 BR   UNL     1      30.242   7.343  47.171  0.00  0.00    +0.000 Br
ATOM     17  C   UNL     1      28.669   6.592  47.898  0.00  0.00    +0.000 A 
ATOM     18  C   UNL     1      28.652   5.252  48.281  0.00  0.00    +0.000 A 
ATOM     19  C   UNL     1      27.485   4.696  48.818  0.00  0.00    +0.000 A 
ATOM     20  C   UNL     1      26.332   5.479  48.967  0.00  0.00    +0.000 A 
ATOM     21  C   UNL     1      26.364   6.826  48.585  0.00  0.00    +0.000 A 
ATOM     22  C   UNL     1      27.531   7.381  48.050  0.00  0.00    +0.000 A 
ENDBRANCH   1  20
BRANCH   3  23
ATOM     23  C   UNL     1      21.836   3.773  49.183  0.00  0.00    +0.000 A 
ATOM     24  C   UNL     1      21.460   2.533  48.645  0.00  0.00    +0.000 A 
ATOM     25  C   UNL     1      20.145   2.277  48.237  0.00  0.00    +0.000 A 
ATOM     26  C   UNL     1      19.176   3.269  48.350  0.00  0.00    +0.000 A 
ATOM     27  C   UNL     1      19.521   4.510  48.870  0.00  0.00    +0.000 A 
ATOM     28  C   UNL     1      20.834   4.753  49.284  0.00  0.00    +0.000 A 
ENDBRANCH   3  23
TORSDOF 3
ENDMDL
MODEL 8
REMARK VINA RESULT:    -9.437      1.298      2.009
REMARK INTER + INTRA:         -11.850
REMARK INTER:                 -10.864
REMARK INTRA:                  -0.986
REMARK UNBOUND:                -0.758
REMARK  Name = 
REMARK  3 active torsions:
REMARK  status: ('A' for Active; 'I' for Inactive)
REMARK    1  A    between atoms: C_5  and  C_6
REMARK    2  A    between atoms: N_8  and  C_9
REMARK    3  A    between atoms: C_15  and  C_16
REMARK                            x       y       z     vdW  Elec       q    Type
REMARK                         _______ _______ _______ _____ _____    ______ ____
ROOT
ATOM      1  C   UNL     1      21.051   0.752  52.321  0.00  0.00    +0.000 C 
ATOM      2  N   UNL     1      22.182   0.123  52.445  0.00  0.00    +0.000 NA
ATOM      3  N   UNL     1      23.172   1.072  52.444  0.00  0.00    +0.000 N 
ATOM      4  C   UNL     1      22.651   2.438  52.463  0.00  0.00    +0.000 C 
ATOM      5  C   UNL     1      21.160   2.242  52.189  0.00  0.00    +0.000 C 
ENDROOT
BRANCH   4   6
ATOM      6  C   UNL     1      23.270   3.351  51.418  0.00  0.00    +0.000 A 
ATOM      7  C   UNL     1      23.639   2.817  50.177  0.00  0.00    +0.000 A 
ATOM      8  C   UNL     1      24.381   3.578  49.271  0.00  0.00    +0.000 A 
ATOM      9  C   UNL     1      24.767   4.889  49.587  0.00  0.00    +0.000 A 
ATOM     10  C   UNL     1      25.640   5.614  48.759  0.00  0.00    +0.000 A 
ATOM     11  C   UNL     1      26.012   6.918  49.089  0.00  0.00    +0.000 A 
ATOM     12  C   UNL     1      25.463   7.536  50.209  0.00  0.00    +0.000 A 
ATOM     13  C   UNL     1      24.602   6.824  51.046  0.00  0.00    +0.000 A 
ATOM     14  C   UNL     1      24.293   5.481  50.775  0.00  0.00    +0.000 A 
ATOM     15  C   UNL     1      23.561   4.701  51.683  0.00  0.00    +0.000 A 
ENDBRANCH   4   6
BRANCH   1  20
ATOM     16 BR   UNL     1      15.558  -2.067  52.326  0.00  0.00    +0.000 Br
ATOM     17  C   UNL     1      17.240  -1.210  52.314  0.00  0.00    +0.000 A 
ATOM     18  C   UNL     1      18.141  -1.432  53.354  0.00  0.00    +0.000 A 
ATOM     19  C   UNL     1      19.386  -0.794  53.345  0.00  0.00    +0.000 A 
ATOM     20  C   UNL     1      19.731   0.071  52.297  0.00  0.00    +0.000 A 
ATOM     21  C   UNL     1      18.820   0.281  51.254  0.00  0.00    +0.000 A 
ATOM     22  C   UNL     1      17.575  -0.358  51.264  0.00  0.00    +0.000 A 
ENDBRANCH   1  20
BRANCH   3  23
ATOM     23  C   UNL     1      24.466   0.733  52.850  0.00  0.00    +0.000 A 
ATOM     24  C   UNL     1      25.337   1.713  53.349  0.00  0.00    +0.000 A 
ATOM     25  C   UNL     1      26.616   1.391  53.819  0.00  0.00    +0.000 A 
ATOM     26  C   UNL     1      27.056   0.072  53.787  0.00  0.00    +0.000 A 
ATOM     27  C   UNL     1      26.220  -0.920  53.290  0.00  0.00    +0.000 A 
ATOM     28  C   UNL     1      24.940  -0.590  52.833  0.00  0.00    +0.000 A 
ENDBRANCH   3  23
TORSDOF 3
ENDMDL
MODEL 9
REMARK VINA RESULT:    -9.394      3.475      8.135
REMARK INTER + INTRA:         -11.799
REMARK INTER:                 -11.115
REMARK INTRA:                  -0.684
REMARK UNBOUND:                -0.758
REMARK  Name = 
REMARK  3 active torsions:
REMARK  status: ('A' for Active; 'I' for Inactive)
REMARK    1  A    between atoms: C_5  and  C_6
REMARK    2  A    between atoms: N_8  and  C_9
REMARK    3  A    between atoms: C_15  and  C_16
REMARK                            x       y       z     vdW  Elec       q    Type
REMARK                         _______ _______ _______ _____ _____    ______ ____
ROOT
ATOM      1  C   UNL     1      24.685   1.279  52.147  0.00  0.00    +0.000 C 
ATOM      2  N   UNL     1      24.545   2.133  51.178  0.00  0.00    +0.000 NA
ATOM      3  N   UNL     1      23.214   2.462  51.120  0.00  0.00    +0.000 N 
ATOM      4  C   UNL     1      22.439   1.892  52.221  0.00  0.00    +0.000 C 
ATOM      5  C   UNL     1      23.417   0.901  52.854  0.00  0.00    +0.000 C 
ENDROOT
BRANCH   4   6
ATOM      6  C   UNL     1      21.170   1.180  51.782  0.00  0.00    +0.000 A 
ATOM      7  C   UNL     1      20.662   1.421  50.499  0.00  0.00    +0.000 A 
ATOM      8  C   UNL     1      19.403   0.938  50.134  0.00  0.00    +0.000 A 
ATOM      9  C   UNL     1      18.629   0.203  51.044  0.00  0.00    +0.000 A 
ATOM     10  C   UNL     1      17.304  -0.158  50.751  0.00  0.00    +0.000 A 
ATOM     11  C   UNL     1      16.548  -0.891  51.669  0.00  0.00    +0.000 A 
ATOM     12  C   UNL     1      17.129  -1.330  52.855  0.00  0.00    +0.000 A 
ATOM     13  C   UNL     1      18.442  -0.971  53.163  0.00  0.00    +0.000 A 
ATOM     14  C   UNL     1      19.182  -0.156  52.290  0.00  0.00    +0.000 A 
ATOM     15  C   UNL     1      20.441   0.349  52.650  0.00  0.00    +0.000 A 
ENDBRANCH   4   6
BRANCH   1  20
ATOM     16 BR   UNL     1      30.125  -1.086  53.860  0.00  0.00    +0.000 Br
ATOM     17  C   UNL     1      28.463  -0.369  53.326  0.00  0.00    +0.000 A 
ATOM     18  C   UNL     1      28.276   1.012  53.305  0.00  0.00    +0.000 A 
ATOM     19  C   UNL     1      27.043   1.543  52.911  0.00  0.00    +0.000 A 
ATOM     20  C   UNL     1      25.992   0.692  52.542  0.00  0.00    +0.000 A 
ATOM     21  C   UNL     1      26.193  -0.695  52.560  0.00  0.00    +0.000 A 
ATOM     22  C   UNL     1      27.427  -1.223  52.953  0.00  0.00    +0.000 A 
ENDBRANCH   1  20
BRANCH   3  23
ATOM     23  C   UNL     1      22.799   3.570  50.376  0.00  0.00    +0.000 A 
ATOM     24  C   UNL     1      22.984   3.605  48.986  0.00  0.00    +0.000 A 
ATOM     25  C   UNL     1      22.523   4.675  48.209  0.00  0.00    +0.000 A 
ATOM     26  C   UNL     1      21.874   5.745  48.816  0.00  0.00    +0.000 A 
ATOM     27  C   UNL     1      21.684   5.744  50.192  0.00  0.00    +0.000 A 
ATOM     28  C   UNL     1      22.138   4.665  50.958  0.00  0.00    +0.000 A 
ENDBRANCH   3  23
TORSDOF 3
ENDMDL
