
     RDKit          3D

 49 53  0  0  0  0  0  0  0  0999 V2000
   -3.1515   -1.2013    1.1996 O   0  0  0  0  0  0  0  0  0  0  0  0
   -3.7623   -0.2360    0.6630 C   0  0  0  0  0  0  0  0  0  0  0  0
   -3.2780    1.1643    0.9311 C   0  0  0  0  0  0  0  0  0  0  0  0
   -1.8312    1.1801    1.0824 N   0  0  0  0  0  0  0  0  0  0  0  0
   -0.8883    1.4899    2.0928 C   0  0  0  0  0  0  0  0  0  0  0  0
    0.2427    1.1871    1.2685 C   0  0  0  0  0  0  0  0  0  0  0  0
    1.6098    1.0906    1.1189 C   0  0  0  0  0  0  0  0  0  0  0  0
    2.0587    0.6474   -0.1622 C   0  0  0  0  0  0  0  0  0  0  0  0
    3.4289    0.4904   -0.4594 C   0  0  0  0  0  0  0  0  0  0  0  0
    4.4482    0.8527    0.4883 N   0  0  0  0  0  0  0  0  0  0  0  0
    5.7207    0.1874    0.5736 C   0  0  0  0  0  0  0  0  0  0  0  0
    5.8625   -1.1677    0.2208 C   0  0  0  0  0  0  0  0  0  0  0  0
    7.1045   -1.7995    0.3342 C   0  0  0  0  0  0  0  0  0  0  0  0
    8.2109   -1.0908    0.8099 C   0  0  0  0  0  0  0  0  0  0  0  0
    8.0760    0.2501    1.1812 C   0  0  0  0  0  0  0  0  0  0  0  0
    9.5855    1.2151    1.8444 Br  0  0  0  0  0  0  0  0  0  0  0  0
    6.8338    0.8849    1.0702 C   0  0  0  0  0  0  0  0  0  0  0  0
    3.7967    0.0296   -1.6863 N   0  0  0  0  0  0  0  0  0  0  0  0
    2.8864   -0.2894   -2.6406 C   0  0  0  0  0  0  0  0  0  0  0  0
    1.5607   -0.1460   -2.3974 N   0  0  0  0  0  0  0  0  0  0  0  0
    1.1089    0.3091   -1.2016 C   0  0  0  0  0  0  0  0  0  0  0  0
   -0.2895    0.4293   -0.9975 C   0  0  0  0  0  0  0  0  0  0  0  0
   -0.6677    0.8716    0.2512 C   0  0  0  0  0  0  0  0  0  0  0  0
   -4.9341   -0.4934   -0.1419 N   0  0  0  0  0  0  0  0  0  0  0  0
   -5.0382   -1.7661   -0.8693 C   0  0  0  0  0  0  0  0  0  0  0  0
   -6.5068   -2.1152   -1.1318 C   0  0  0  0  0  0  0  0  0  0  0  0
   -7.1859   -1.0257   -1.7234 O   0  0  0  0  0  0  0  0  0  0  0  0
   -7.2442    0.0474   -0.8050 C   0  0  0  0  0  0  0  0  0  0  0  0
   -5.8432    0.5966   -0.5205 C   0  0  0  0  0  0  0  0  0  0  0  0
   -3.5442    1.8393    0.0916 H   0  0  0  0  0  0  0  0  0  0  0  0
   -3.7514    1.5419    1.8618 H   0  0  0  0  0  0  0  0  0  0  0  0
   -0.9306    2.5652    2.3741 H   0  0  0  0  0  0  0  0  0  0  0  0
   -0.9778    0.7960    2.9572 H   0  0  0  0  0  0  0  0  0  0  0  0
    2.2697    1.3207    1.9432 H   0  0  0  0  0  0  0  0  0  0  0  0
    4.3076    1.7140    1.0627 H   0  0  0  0  0  0  0  0  0  0  0  0
    5.0125   -1.7426   -0.1226 H   0  0  0  0  0  0  0  0  0  0  0  0
    7.2059   -2.8418    0.0620 H   0  0  0  0  0  0  0  0  0  0  0  0
    9.1695   -1.5859    0.8968 H   0  0  0  0  0  0  0  0  0  0  0  0
    6.7366    1.9234    1.3620 H   0  0  0  0  0  0  0  0  0  0  0  0
    3.2205   -0.6539   -3.6022 H   0  0  0  0  0  0  0  0  0  0  0  0
   -1.0168    0.1798   -1.7595 H   0  0  0  0  0  0  0  0  0  0  0  0
   -4.5001   -1.6753   -1.8380 H   0  0  0  0  0  0  0  0  0  0  0  0
   -4.5819   -2.5967   -0.2880 H   0  0  0  0  0  0  0  0  0  0  0  0
   -7.0059   -2.4394   -0.1888 H   0  0  0  0  0  0  0  0  0  0  0  0
   -6.5471   -2.9775   -1.8309 H   0  0  0  0  0  0  0  0  0  0  0  0
   -7.8603    0.8582   -1.2479 H   0  0  0  0  0  0  0  0  0  0  0  0
   -7.7447   -0.2587    0.1432 H   0  0  0  0  0  0  0  0  0  0  0  0
   -5.4512    1.0994   -1.4307 H   0  0  0  0  0  0  0  0  0  0  0  0
   -5.9243    1.3414    0.3010 H   0  0  0  0  0  0  0  0  0  0  0  0
  1  2  2  0
  2  3  1  0
  3  4  1  0
  4  5  1  0
  5  6  1  0
  6  7  2  0
  7  8  1  0
  8  9  2  0
  9 10  1  0
 10 11  1  0
 11 12  2  0
 12 13  1  0
 13 14  2  0
 14 15  1  0
 15 16  1  0
 15 17  2  0
  9 18  1  0
 18 19  2  0
 19 20  1  0
 20 21  2  0
 21 22  1  0
 22 23  2  0
  2 24  1  0
 24 25  1  0
 25 26  1  0
 26 27  1  0
 27 28  1  0
 28 29  1  0
 23  4  1  0
 29 24  1  0
 23  6  1  0
 21  8  1  0
 17 11  1  0
  3 30  1  0
  3 31  1  0
  5 32  1  0
  5 33  1  0
  7 34  1  0
 10 35  1  0
 12 36  1  0
 13 37  1  0
 14 38  1  0
 17 39  1  0
 19 40  1  0
 22 41  1  0
 25 42  1  0
 25 43  1  0
 26 44  1  0
 26 45  1  0
 28 46  1  0
 28 47  1  0
 29 48  1  0
 29 49  1  0
M  END
