REMARK  Name = 
REMARK  13 active torsions:
REMARK  status: ('A' for Active; 'I' for Inactive)
REMARK    1  A    between atoms: C_2  and  C_3
REMARK    2  A    between atoms: N_5  and  C_6
REMARK    3  A    between atoms: C_8  and  N_9
REMARK    4  A    between atoms: C_16  and  C_18
REMARK    5  A    between atoms: C_25  and  O_26
REMARK    6  A    between atoms: O_26  and  C_27
REMARK    7  A    between atoms: C_29  and  N_30
REMARK    8  A    between atoms: N_30  and  C_31
REMARK    9  A    between atoms: N_30  and  C_32
REMARK   10  A    between atoms: C_32  and  C_33
REMARK   11  A    between atoms: C_33  and  N_34
REMARK   12  A    between atoms: N_34  and  C_35
REMARK   13  A    between atoms: N_34  and  C_36
REMARK                            x       y       z     vdW  Elec       q    Type
REMARK                         _______ _______ _______ _____ _____    ______ ____
ROOT
ATOM      1  C   UNL     1      -0.855   1.295   0.209  0.00  0.00    +0.000 A 
ATOM      2  C   UNL     1       0.061   1.669  -0.798  0.00  0.00    +0.000 A 
ATOM      3  C   UNL     1       0.505   2.995  -0.989  0.00  0.00    +0.000 A 
ATOM      4  C   UNL     1      -0.023   3.964  -0.132  0.00  0.00    +0.000 A 
ATOM      5  C   UNL     1      -0.902   3.569   0.900  0.00  0.00    +0.000 A 
ATOM      6  C   UNL     1      -1.370   2.255   1.109  0.00  0.00    +0.000 A 
ENDROOT
BRANCH   3   7
ATOM      7  N   UNL     1       1.367   3.309  -2.072  0.00  0.00    +0.000 N 
ATOM      8  C   UNL     1       2.172   2.384  -2.758  0.00  0.00    +0.000 A 
ATOM      9  N   UNL     1       2.894   1.485  -2.071  0.00  0.00    +0.000 NA
ATOM     10  C   UNL     1       3.510   0.527  -2.777  0.00  0.00    +0.000 A 
ATOM     11  C   UNL     1       3.429   0.432  -4.143  0.00  0.00    +0.000 A 
ATOM     12  C   UNL     1       2.699   1.416  -4.775  0.00  0.00    +0.000 A 
ATOM     13  N   UNL     1       2.572   1.314  -6.172  0.00  0.00    +0.000 N 
ATOM     14  C   UNL     1       1.848   2.181  -6.967  0.00  0.00    +0.000 C 
ATOM     15  O   UNL     1       1.264   3.195  -6.602  0.00  0.00    +0.000 OA
ATOM     16  N   UNL     1       2.090   2.400  -4.094  0.00  0.00    +0.000 NA
ATOM     17  H   UNL     1       1.404   4.248  -2.366  0.00  0.00    +0.000 HD
ATOM     18  H   UNL     1       3.034   0.568  -6.618  0.00  0.00    +0.000 HD
BRANCH  14  19
ATOM     19  C   UNL     1       1.741   1.790  -8.406  0.00  0.00    +0.000 A 
ATOM     20  C   UNL     1       0.552   2.103  -9.081  0.00  0.00    +0.000 A 
ATOM     21  C   UNL     1       0.383   1.746 -10.419  0.00  0.00    +0.000 A 
ATOM     22  C   UNL     1       1.408   1.085 -11.096  0.00  0.00    +0.000 A 
ATOM     23  C   UNL     1       2.603   0.789 -10.441  0.00  0.00    +0.000 A 
ATOM     24  C   UNL     1       2.776   1.144  -9.099  0.00  0.00    +0.000 A 
ENDBRANCH  14  19
ENDBRANCH   3   7
BRANCH   1  27
ATOM     25  C   UNL     1      -1.740  -0.917  -0.600  0.00  0.00    +0.000 C 
ATOM     26  O   UNL     1      -1.943  -2.087  -0.276  0.00  0.00    +0.000 OA
ATOM     27  N   UNL     1      -1.191  -0.066   0.312  0.00  0.00    +0.000 N 
ATOM     28  H   UNL     1      -0.998  -0.472   1.188  0.00  0.00    +0.000 HD
BRANCH  25  30
ATOM     29  C   UNL     1      -2.891  -1.179  -2.737  0.00  0.00    +0.000 C 
ATOM     30  C   UNL     1      -2.188  -0.390  -1.914  0.00  0.00    +0.000 C 
ENDBRANCH  25  30
ENDBRANCH   1  27
BRANCH   4  31
ATOM     31  O   UNL     1       0.169   5.319  -0.109  0.00  0.00    +0.000 OA
ATOM     32  C   UNL     1       1.071   5.936  -1.008  0.00  0.00    +0.000 C 
ENDBRANCH   4  31
BRANCH   6  33
ATOM     33  N   UNL     1      -2.355   2.014   2.065  0.00  0.00    +0.000 N 
ATOM     34  C   UNL     1      -2.412   0.799   2.870  0.00  0.00    +0.000 C 
BRANCH  33  35
ATOM     35  C   UNL     1      -3.248   3.098   2.535  0.00  0.00    +0.000 C 
BRANCH  35  36
ATOM     36  C   UNL     1      -4.094   3.747   1.409  0.00  0.00    +0.000 C 
BRANCH  36  37
ATOM     37  N   UNL     1      -5.129   4.675   1.921  0.00  0.00    +0.000 N 
ATOM     38  C   UNL     1      -4.547   5.857   2.563  0.00  0.00    +0.000 C 
ATOM     39  C   UNL     1      -6.011   5.105   0.832  0.00  0.00    +0.000 C 
ATOM     40  H   UNL     1      -5.662   4.164   2.624  0.00  0.00    +0.000 HD
ENDBRANCH  36  37
ENDBRANCH  35  36
ENDBRANCH  33  35
ENDBRANCH   6  33
TORSDOF 9
