
     RDKit          3D

 64 68  0  0  0  0  0  0  0  0999 V2000
   -7.3204    3.2741    3.4600 C   0  0  0  0  0  0  0  0  0  0  0  0
   -7.7921    2.1480    2.9263 C   0  0  0  0  0  0  0  0  0  0  0  0
   -7.2654    1.5598    1.6821 C   0  0  0  0  0  0  0  0  0  0  0  0
   -7.7034    0.4329    1.3246 O   0  0  0  0  0  0  0  0  0  0  0  0
   -6.3244    2.2642    0.8490 N   0  0  0  0  0  0  0  0  0  0  0  0
   -5.4617    1.6121   -0.1028 C   0  0  0  0  0  0  0  0  0  0  0  0
   -5.0220    2.3204   -1.2310 C   0  0  0  0  0  0  0  0  0  0  0  0
   -4.1922    1.7071   -2.1735 C   0  0  0  0  0  0  0  0  0  0  0  0
   -3.7859    0.3825   -1.9964 C   0  0  0  0  0  0  0  0  0  0  0  0
   -4.1985   -0.3355   -0.8651 C   0  0  0  0  0  0  0  0  0  0  0  0
   -3.8205   -1.7182   -0.7015 N   0  0  0  0  0  0  0  0  0  0  0  0
   -4.7934   -2.6855   -0.7032 C   0  0  0  0  0  0  0  0  0  0  0  0
   -6.0074   -2.3763   -0.8567 O   0  0  0  0  0  0  0  0  0  0  0  0
   -4.4582   -4.0311   -0.5486 C   0  0  0  0  0  0  0  0  0  0  0  0
   -3.1209   -4.4137   -0.4046 C   0  0  0  0  0  0  0  0  0  0  0  0
   -2.7894   -5.8744   -0.2346 C   0  0  0  0  0  0  0  0  0  0  0  0
   -2.1249   -3.4158   -0.4037 C   0  0  0  0  0  0  0  0  0  0  0  0
   -0.7597   -3.7055   -0.2445 C   0  0  0  0  0  0  0  0  0  0  0  0
    0.1523   -2.7034   -0.2373 N   0  0  0  0  0  0  0  0  0  0  0  0
   -0.2207   -1.4061   -0.3857 C   0  0  0  0  0  0  0  0  0  0  0  0
    0.7523   -0.3548   -0.3426 N   0  0  0  0  0  0  0  0  0  0  0  0
    2.1662   -0.5611   -0.4699 C   0  0  0  0  0  0  0  0  0  0  0  0
    2.8256   -1.6287   -1.0555 C   0  0  0  0  0  0  0  0  0  0  0  0
    4.1496   -1.3793   -1.0342 N   0  0  0  0  0  0  0  0  0  0  0  0
    4.3353   -0.1996   -0.4587 N   0  0  0  0  0  0  0  0  0  0  0  0
    5.6577    0.4095   -0.2853 C   0  0  0  0  0  0  0  0  0  0  0  0
    5.9622    0.6501    1.2017 C   0  0  0  0  0  0  0  0  0  0  0  0
    7.3197    1.3447    1.3563 C   0  0  0  0  0  0  0  0  0  0  0  0
    7.3368    2.6194    0.6074 N   0  0  0  0  0  0  0  0  0  0  0  0
    8.6247    3.3022    0.8116 C   0  0  0  0  0  0  0  0  0  0  0  0
    7.1260    2.3785   -0.8340 C   0  0  0  0  0  0  0  0  0  0  0  0
    5.7613    1.7231   -1.0750 C   0  0  0  0  0  0  0  0  0  0  0  0
    3.1461    0.3364   -0.1150 C   0  0  0  0  0  0  0  0  0  0  0  0
   -1.5357   -1.0977   -0.5275 N   0  0  0  0  0  0  0  0  0  0  0  0
   -2.4994   -2.0609   -0.5532 C   0  0  0  0  0  0  0  0  0  0  0  0
   -5.0202    0.2885    0.0868 C   0  0  0  0  0  0  0  0  0  0  0  0
   -6.4975    3.8225    3.0161 H   0  0  0  0  0  0  0  0  0  0  0  0
   -7.7493    3.6446    4.3776 H   0  0  0  0  0  0  0  0  0  0  0  0
   -8.5966    1.6299    3.4387 H   0  0  0  0  0  0  0  0  0  0  0  0
   -6.3735    3.3037    0.8260 H   0  0  0  0  0  0  0  0  0  0  0  0
   -5.3315    3.3468   -1.3902 H   0  0  0  0  0  0  0  0  0  0  0  0
   -3.8747    2.2582   -3.0480 H   0  0  0  0  0  0  0  0  0  0  0  0
   -3.1600   -0.0910   -2.7422 H   0  0  0  0  0  0  0  0  0  0  0  0
   -5.2431   -4.7780   -0.5540 H   0  0  0  0  0  0  0  0  0  0  0  0
   -3.6946   -6.5140   -0.3091 H   0  0  0  0  0  0  0  0  0  0  0  0
   -2.3328   -6.0361    0.7637 H   0  0  0  0  0  0  0  0  0  0  0  0
   -2.0801   -6.1993   -1.0254 H   0  0  0  0  0  0  0  0  0  0  0  0
   -0.4069   -4.7193   -0.1147 H   0  0  0  0  0  0  0  0  0  0  0  0
    0.4130    0.6208   -0.1801 H   0  0  0  0  0  0  0  0  0  0  0  0
    2.3853   -2.5096   -1.5022 H   0  0  0  0  0  0  0  0  0  0  0  0
    6.4248   -0.2934   -0.6832 H   0  0  0  0  0  0  0  0  0  0  0  0
    5.9832   -0.3231    1.7388 H   0  0  0  0  0  0  0  0  0  0  0  0
    5.1728    1.2842    1.6611 H   0  0  0  0  0  0  0  0  0  0  0  0
    7.4886    1.5383    2.4379 H   0  0  0  0  0  0  0  0  0  0  0  0
    8.1257    0.6636    1.0021 H   0  0  0  0  0  0  0  0  0  0  0  0
    9.4732    2.6831    0.4447 H   0  0  0  0  0  0  0  0  0  0  0  0
    8.7748    3.5225    1.8908 H   0  0  0  0  0  0  0  0  0  0  0  0
    8.6274    4.2765    0.2812 H   0  0  0  0  0  0  0  0  0  0  0  0
    7.1448    3.3464   -1.3827 H   0  0  0  0  0  0  0  0  0  0  0  0
    7.9289    1.7309   -1.2523 H   0  0  0  0  0  0  0  0  0  0  0  0
    4.9600    2.4281   -0.7596 H   0  0  0  0  0  0  0  0  0  0  0  0
    5.6368    1.5137   -2.1605 H   0  0  0  0  0  0  0  0  0  0  0  0
    3.0045    1.3090    0.3390 H   0  0  0  0  0  0  0  0  0  0  0  0
   -5.3026   -0.2647    0.9709 H   0  0  0  0  0  0  0  0  0  0  0  0
  1  2  2  0
  2  3  1  0
  3  4  2  0
  3  5  1  0
  5  6  1  0
  6  7  2  0
  7  8  1  0
  8  9  2  0
  9 10  1  0
 10 11  1  0
 11 12  1  0
 12 13  2  0
 12 14  1  0
 14 15  2  0
 15 16  1  0
 15 17  1  0
 17 18  2  0
 18 19  1  0
 19 20  2  0
 20 21  1  0
 21 22  1  0
 22 23  1  0
 23 24  2  0
 24 25  1  0
 25 26  1  0
 26 27  1  0
 27 28  1  0
 28 29  1  0
 29 30  1  0
 29 31  1  0
 31 32  1  0
 25 33  1  0
 20 34  1  0
 34 35  2  0
 10 36  2  0
 36  6  1  0
 35 11  1  0
 35 17  1  0
 33 22  2  0
 32 26  1  0
  1 37  1  0
  1 38  1  0
  2 39  1  0
  5 40  1  0
  7 41  1  0
  8 42  1  0
  9 43  1  0
 14 44  1  0
 16 45  1  0
 16 46  1  0
 16 47  1  0
 18 48  1  0
 21 49  1  0
 23 50  1  0
 26 51  1  0
 27 52  1  0
 27 53  1  0
 28 54  1  0
 28 55  1  0
 30 56  1  0
 30 57  1  0
 30 58  1  0
 31 59  1  0
 31 60  1  0
 32 61  1  0
 32 62  1  0
 33 63  1  0
 36 64  1  0
M  END
