REMARK  Name = 
REMARK  3 active torsions:
REMARK  status: ('A' for Active; 'I' for Inactive)
REMARK    1  A    between atoms: C_5  and  C_6
REMARK    2  A    between atoms: N_8  and  C_9
REMARK    3  A    between atoms: C_15  and  C_16
REMARK                            x       y       z     vdW  Elec       q    Type
REMARK                         _______ _______ _______ _____ _____    ______ ____
ROOT
ATOM      1  C   UNL     1       4.715  -0.111   0.059  0.00  0.00    +0.000 C 
ATOM      2  N   UNL     1       5.388   0.323   1.083  0.00  0.00    +0.000 NA
ATOM      3  N   UNL     1       6.716   0.113   0.810  0.00  0.00    +0.000 N 
ATOM      4  C   UNL     1       6.948  -0.365  -0.552  0.00  0.00    +0.000 C 
ATOM      5  C   UNL     1       5.541  -0.709  -1.041  0.00  0.00    +0.000 C 
ENDROOT
BRANCH   4   6
ATOM      6  C   UNL     1       7.853  -1.583  -0.635  0.00  0.00    +0.000 A 
ATOM      7  C   UNL     1       8.537  -1.845  -1.829  0.00  0.00    +0.000 A 
ATOM      8  C   UNL     1       9.220  -3.051  -2.004  0.00  0.00    +0.000 A 
ATOM      9  C   UNL     1       9.234  -4.017  -0.987  0.00  0.00    +0.000 A 
ATOM     10  C   UNL     1       9.782  -5.293  -1.199  0.00  0.00    +0.000 A 
ATOM     11  C   UNL     1       9.789  -6.242  -0.175  0.00  0.00    +0.000 A 
ATOM     12  C   UNL     1       9.314  -5.905   1.089  0.00  0.00    +0.000 A 
ATOM     13  C   UNL     1       8.758  -4.644   1.311  0.00  0.00    +0.000 A 
ATOM     14  C   UNL     1       8.661  -3.713   0.264  0.00  0.00    +0.000 A 
ATOM     15  C   UNL     1       7.965  -2.504   0.421  0.00  0.00    +0.000 A 
ENDBRANCH   4   6
BRANCH   1  20
ATOM     16 BR   UNL     1      -1.438   0.260  -0.296  0.00  0.00    +0.000 Br
ATOM     17  C   UNL     1       0.443   0.135  -0.189  0.00  0.00    +0.000 A 
ATOM     18  C   UNL     1       1.107   0.597   0.946  0.00  0.00    +0.000 A 
ATOM     19  C   UNL     1       2.501   0.505   1.023  0.00  0.00    +0.000 A 
ATOM     20  C   UNL     1       3.234  -0.044  -0.038  0.00  0.00    +0.000 A 
ATOM     21  C   UNL     1       2.555  -0.511  -1.171  0.00  0.00    +0.000 A 
ATOM     22  C   UNL     1       1.161  -0.420  -1.246  0.00  0.00    +0.000 A 
ENDBRANCH   1  20
BRANCH   3  23
ATOM     23  C   UNL     1       7.697   0.735   1.588  0.00  0.00    +0.000 A 
ATOM     24  C   UNL     1       7.442   1.064   2.928  0.00  0.00    +0.000 A 
ATOM     25  C   UNL     1       8.426   1.632   3.746  0.00  0.00    +0.000 A 
ATOM     26  C   UNL     1       9.691   1.895   3.231  0.00  0.00    +0.000 A 
ATOM     27  C   UNL     1       9.971   1.589   1.905  0.00  0.00    +0.000 A 
ATOM     28  C   UNL     1       8.985   1.012   1.099  0.00  0.00    +0.000 A 
ENDBRANCH   3  23
TORSDOF 3
