
     RDKit          3D

 56 59  0  0  0  0  0  0  0  0999 V2000
   -0.4692   -2.5956    5.6131 C   0  0  0  0  0  0  0  0  0  0  0  0
   -0.1772   -1.9126    4.3981 O   0  0  0  0  0  0  0  0  0  0  0  0
   -1.1409   -1.4922    3.4659 C   0  0  0  0  0  0  0  0  0  0  0  0
   -2.5151   -1.7240    3.6639 C   0  0  0  0  0  0  0  0  0  0  0  0
   -3.4513   -1.2951    2.7193 C   0  0  0  0  0  0  0  0  0  0  0  0
   -4.7711   -1.5468    2.9168 N   0  0  0  0  0  0  0  0  0  0  0  0
   -5.7007   -1.1570    2.0101 C   0  0  0  0  0  0  0  0  0  0  0  0
   -5.3213   -0.4985    0.8867 N   0  0  0  0  0  0  0  0  0  0  0  0
   -4.0146   -0.2181    0.6284 C   0  0  0  0  0  0  0  0  0  0  0  0
   -3.6759    0.5296   -0.5525 N   0  0  0  0  0  0  0  0  0  0  0  0
   -4.4014    0.4269   -1.7910 C   0  0  0  0  0  0  0  0  0  0  0  0
   -4.3964    1.5071   -2.6862 C   0  0  0  0  0  0  0  0  0  0  0  0
   -5.0733    1.4208   -3.9065 C   0  0  0  0  0  0  0  0  0  0  0  0
   -5.7544    0.2502   -4.2501 C   0  0  0  0  0  0  0  0  0  0  0  0
   -6.4089    0.1772   -5.4372 F   0  0  0  0  0  0  0  0  0  0  0  0
   -5.7516   -0.8416   -3.3734 C   0  0  0  0  0  0  0  0  0  0  0  0
   -6.5861   -2.3271   -3.8032 Cl  0  0  0  0  0  0  0  0  0  0  0  0
   -5.0734   -0.7561   -2.1514 C   0  0  0  0  0  0  0  0  0  0  0  0
   -3.0285   -0.6179    1.5565 C   0  0  0  0  0  0  0  0  0  0  0  0
   -1.6547   -0.4004    1.3515 C   0  0  0  0  0  0  0  0  0  0  0  0
   -0.7115   -0.8170    2.3077 C   0  0  0  0  0  0  0  0  0  0  0  0
    0.6952   -0.6140    2.0808 N   0  0  0  0  0  0  0  0  0  0  0  0
    1.2355    0.5685    1.4688 C   0  0  0  0  0  0  0  0  0  0  0  0
    0.5289    1.6097    1.3755 O   0  0  0  0  0  0  0  0  0  0  0  0
    2.6339    0.5742    0.9903 C   0  0  0  0  0  0  0  0  0  0  0  0
    3.3706   -0.5584    1.1265 F   0  0  0  0  0  0  0  0  0  0  0  0
    3.1748    1.6582    0.4147 C   0  0  0  0  0  0  0  0  0  0  0  0
    4.5861    1.6828   -0.1025 C   0  0  0  0  0  0  0  0  0  0  0  0
    4.5870    1.7369   -1.5809 N   0  0  0  0  0  0  0  0  0  0  0  0
    4.2808    0.4296   -2.2028 C   0  0  0  0  0  0  0  0  0  0  0  0
    5.4965   -0.5158   -2.1959 C   0  0  0  0  0  0  0  0  0  0  0  0
    6.6172    0.0932   -2.8041 O   0  0  0  0  0  0  0  0  0  0  0  0
    6.9785    1.2511   -2.0794 C   0  0  0  0  0  0  0  0  0  0  0  0
    5.8468    2.2878   -2.1212 C   0  0  0  0  0  0  0  0  0  0  0  0
   -1.1099   -1.9617    6.2631 H   0  0  0  0  0  0  0  0  0  0  0  0
    0.4807   -2.8075    6.1479 H   0  0  0  0  0  0  0  0  0  0  0  0
   -0.9766   -3.5601    5.3959 H   0  0  0  0  0  0  0  0  0  0  0  0
   -2.8660   -2.2426    4.5459 H   0  0  0  0  0  0  0  0  0  0  0  0
   -6.7473   -1.3667    2.1851 H   0  0  0  0  0  0  0  0  0  0  0  0
   -2.9457    1.2723   -0.4749 H   0  0  0  0  0  0  0  0  0  0  0  0
   -3.8739    2.4211   -2.4333 H   0  0  0  0  0  0  0  0  0  0  0  0
   -5.0718    2.2644   -4.5854 H   0  0  0  0  0  0  0  0  0  0  0  0
   -5.0583   -1.6199   -1.4972 H   0  0  0  0  0  0  0  0  0  0  0  0
   -1.3026    0.0539    0.4365 H   0  0  0  0  0  0  0  0  0  0  0  0
    1.3640   -1.3326    2.4407 H   0  0  0  0  0  0  0  0  0  0  0  0
    2.5813    2.5542    0.2745 H   0  0  0  0  0  0  0  0  0  0  0  0
    5.0549    2.5985    0.3186 H   0  0  0  0  0  0  0  0  0  0  0  0
    5.1817    0.8262    0.2770 H   0  0  0  0  0  0  0  0  0  0  0  0
    3.4227   -0.0625   -1.6970 H   0  0  0  0  0  0  0  0  0  0  0  0
    3.9705    0.6003   -3.2566 H   0  0  0  0  0  0  0  0  0  0  0  0
    5.7397   -0.8601   -1.1661 H   0  0  0  0  0  0  0  0  0  0  0  0
    5.2354   -1.4245   -2.7783 H   0  0  0  0  0  0  0  0  0  0  0  0
    7.8800    1.6937   -2.5530 H   0  0  0  0  0  0  0  0  0  0  0  0
    7.2540    1.0000   -1.0300 H   0  0  0  0  0  0  0  0  0  0  0  0
    5.6816    2.5937   -3.1773 H   0  0  0  0  0  0  0  0  0  0  0  0
    6.1512    3.2048   -1.5723 H   0  0  0  0  0  0  0  0  0  0  0  0
  1  2  1  0
  2  3  1  0
  3  4  2  0
  4  5  1  0
  5  6  2  0
  6  7  1  0
  7  8  2  0
  8  9  1  0
  9 10  1  0
 10 11  1  0
 11 12  2  0
 12 13  1  0
 13 14  2  0
 14 15  1  0
 14 16  1  0
 16 17  1  0
 16 18  2  0
  9 19  2  0
 19 20  1  0
 20 21  2  0
 21 22  1  0
 22 23  1  0
 23 24  2  0
 23 25  1  0
 25 26  1  0
 25 27  2  0
 27 28  1  0
 28 29  1  0
 29 30  1  0
 30 31  1  0
 31 32  1  0
 32 33  1  0
 33 34  1  0
 21  3  1  0
 34 29  1  0
 19  5  1  0
 18 11  1  0
  1 35  1  0
  1 36  1  0
  1 37  1  0
  4 38  1  0
  7 39  1  0
 10 40  1  0
 12 41  1  0
 13 42  1  0
 18 43  1  0
 20 44  1  0
 22 45  1  0
 27 46  1  0
 28 47  1  0
 28 48  1  0
 30 49  1  0
 30 50  1  0
 31 51  1  0
 31 52  1  0
 33 53  1  0
 33 54  1  0
 34 55  1  0
 34 56  1  0
M  END
