REMARK  Name = 
REMARK  4 active torsions:
REMARK  status: ('A' for Active; 'I' for Inactive)
REMARK    1  A    between atoms: C_2  and  S_3
REMARK    2  A    between atoms: S_3  and  C_5
REMARK    3  A    between atoms: C_8  and  N_9
REMARK    4  A    between atoms: N_9  and  C_10
REMARK                            x       y       z     vdW  Elec       q    Type
REMARK                         _______ _______ _______ _____ _____    ______ ____
ROOT
ATOM      1  C   UNL     1      -2.322   0.047   0.449  0.00  0.00    +0.000 A 
ATOM      2  C   UNL     1      -2.354  -1.334   0.556  0.00  0.00    +0.000 A 
ATOM      3  C   UNL     1      -2.482  -1.914   1.839  0.00  0.00    +0.000 A 
ATOM      4  C   UNL     1      -2.452  -3.293   2.111  0.00  0.00    +0.000 A 
ATOM      5  N   UNL     1      -2.562  -3.770   3.367  0.00  0.00    +0.000 NA
ATOM      6  C   UNL     1      -2.683  -2.885   4.352  0.00  0.00    +0.000 A 
ATOM      7  N   UNL     1      -2.725  -1.558   4.210  0.00  0.00    +0.000 NA
ATOM      8  C   UNL     1      -2.624  -1.086   2.960  0.00  0.00    +0.000 A 
ATOM      9  C   UNL     1      -2.628   0.279   2.712  0.00  0.00    +0.000 A 
ATOM     10  N   UNL     1      -2.473   0.879   1.497  0.00  0.00    +0.000 NA
ENDROOT
BRANCH   1  11
ATOM     11  S   UNL     1      -1.777   0.879  -1.048  0.00  0.00    +0.000 S 
ATOM     12  O   UNL     1      -1.391  -0.233  -2.089  0.00  0.00    +0.000 OA
BRANCH  11  14
ATOM     13  C   UNL     1      -3.378   1.895  -2.959  0.00  0.00    +0.000 C 
ATOM     14  C   UNL     1      -3.288   1.629  -1.649  0.00  0.00    +0.000 C 
ENDBRANCH  11  14
ENDBRANCH   1  11
BRANCH   4  15
ATOM     15  N   UNL     1      -2.270  -4.222   1.049  0.00  0.00    +0.000 N 
ATOM     16  H   UNL     1      -1.959  -3.877   0.181  0.00  0.00    +0.000 HD
BRANCH  15  17
ATOM     17  C   UNL     1      -2.510  -5.611   1.163  0.00  0.00    +0.000 A 
ATOM     18  C   UNL     1      -3.698  -6.087   1.740  0.00  0.00    +0.000 A 
ATOM     19  C   UNL     1      -3.929  -7.453   1.899  0.00  0.00    +0.000 A 
ATOM     20  C   UNL     1      -2.971  -8.371   1.473  0.00  0.00    +0.000 A 
ATOM     21  C   UNL     1      -1.798  -7.909   0.877  0.00  0.00    +0.000 A 
ATOM     22 BR   UNL     1      -0.491  -9.157   0.316  0.00  0.00    +0.000 Br
ATOM     23  C   UNL     1      -1.568  -6.542   0.706  0.00  0.00    +0.000 A 
ENDBRANCH  15  17
ENDBRANCH   4  15
TORSDOF 4
