
     RDKit          3D

 86 92  0  0  0  0  0  0  0  0999 V2000
    5.3701    2.8473    0.4987 C   0  0  0  0  0  0  0  0  0  0  0  0
    5.8900    1.5542    0.2079 O   0  0  0  0  0  0  0  0  0  0  0  0
    5.1106    0.4010    0.0129 C   0  0  0  0  0  0  0  0  0  0  0  0
    3.7021    0.4536   -0.0562 C   0  0  0  0  0  0  0  0  0  0  0  0
    2.9451   -0.7289   -0.1811 C   0  0  0  0  0  0  0  0  0  0  0  0
    1.5266   -0.7523   -0.1950 C   0  0  0  0  0  0  0  0  0  0  0  0
    0.7407    0.4445   -0.0158 N   0  0  0  0  0  0  0  0  0  0  0  0
   -0.6674    0.5235   -0.3115 C   0  0  0  0  0  0  0  0  0  0  0  0
   -1.2322   -0.2021   -1.3791 C   0  0  0  0  0  0  0  0  0  0  0  0
   -2.6073   -0.1439   -1.6279 C   0  0  0  0  0  0  0  0  0  0  0  0
   -3.4331    0.6640   -0.8342 C   0  0  0  0  0  0  0  0  0  0  0  0
   -4.8452    0.7326   -1.0701 N   0  0  0  0  0  0  0  0  0  0  0  0
   -5.6728   -0.4343   -1.2107 C   0  0  0  0  0  0  0  0  0  0  0  0
   -5.1646   -1.5860   -1.1352 O   0  0  0  0  0  0  0  0  0  0  0  0
   -7.1671   -0.2658   -1.3584 C   0  0  0  0  0  0  0  0  0  0  0  0
   -7.8939   -1.5929   -1.5584 C   0  0  0  0  0  0  0  0  0  0  0  0
   -8.6637   -2.1929   -0.5359 C   0  0  0  0  0  0  0  0  0  0  0  0
   -9.3048   -3.4149   -0.7526 C   0  0  0  0  0  0  0  0  0  0  0  0
  -10.0400   -3.9792    0.2377 F   0  0  0  0  0  0  0  0  0  0  0  0
   -9.1815   -4.0632   -1.9831 C   0  0  0  0  0  0  0  0  0  0  0  0
   -8.4189   -3.4887   -3.0013 C   0  0  0  0  0  0  0  0  0  0  0  0
   -7.7761   -2.2639   -2.7949 C   0  0  0  0  0  0  0  0  0  0  0  0
   -7.0329   -1.7340   -3.8009 F   0  0  0  0  0  0  0  0  0  0  0  0
   -7.7100    0.5045   -0.2287 N   0  0  0  0  0  0  0  0  0  0  0  0
   -8.6141    1.6559   -0.3729 C   0  0  0  0  0  0  0  0  0  0  0  0
   -8.7556    2.1675    1.0311 C   0  0  0  0  0  0  0  0  0  0  0  0
   -9.4903    3.2658    1.4773 C   0  0  0  0  0  0  0  0  0  0  0  0
   -9.4689    3.5764    2.8498 C   0  0  0  0  0  0  0  0  0  0  0  0
   -8.7124    2.7956    3.7467 C   0  0  0  0  0  0  0  0  0  0  0  0
   -7.9690    1.6970    3.2767 C   0  0  0  0  0  0  0  0  0  0  0  0
   -8.0127    1.4131    1.9134 C   0  0  0  0  0  0  0  0  0  0  0  0
   -7.3566    0.3820    1.1523 C   0  0  0  0  0  0  0  0  0  0  0  0
   -6.5902   -0.5030    1.6216 O   0  0  0  0  0  0  0  0  0  0  0  0
   -2.8637    1.4455    0.1809 C   0  0  0  0  0  0  0  0  0  0  0  0
   -1.4935    1.3702    0.4485 C   0  0  0  0  0  0  0  0  0  0  0  0
   -0.9748    2.1114    1.4654 F   0  0  0  0  0  0  0  0  0  0  0  0
    0.8888   -1.9507   -0.3053 N   0  0  0  0  0  0  0  0  0  0  0  0
    1.5682   -3.1154   -0.4308 C   0  0  0  0  0  0  0  0  0  0  0  0
    2.9234   -3.1153   -0.4272 N   0  0  0  0  0  0  0  0  0  0  0  0
    3.6247   -1.9612   -0.3009 C   0  0  0  0  0  0  0  0  0  0  0  0
    5.0208   -2.0062   -0.2844 C   0  0  0  0  0  0  0  0  0  0  0  0
    5.7704   -0.8313   -0.1080 C   0  0  0  0  0  0  0  0  0  0  0  0
    7.1722   -0.8482   -0.0311 O   0  0  0  0  0  0  0  0  0  0  0  0
    7.9797   -2.0150   -0.1704 C   0  0  0  0  0  0  0  0  0  0  0  0
    9.4650   -1.7045    0.1003 C   0  0  0  0  0  0  0  0  0  0  0  0
    9.7114   -1.1929    1.5442 C   0  0  0  0  0  0  0  0  0  0  0  0
    9.9490    0.3229    1.6179 C   0  0  0  0  0  0  0  0  0  0  0  0
    9.1573    1.0121    0.5844 N   0  0  0  0  0  0  0  0  0  0  0  0
    9.1514    2.4620    0.8310 C   0  0  0  0  0  0  0  0  0  0  0  0
    9.6826    0.7232   -0.7688 C   0  0  0  0  0  0  0  0  0  0  0  0
   10.0757   -0.7603   -0.9590 C   0  0  0  0  0  0  0  0  0  0  0  0
    4.7614    3.2172   -0.3517 H   0  0  0  0  0  0  0  0  0  0  0  0
    6.2136    3.5491    0.6634 H   0  0  0  0  0  0  0  0  0  0  0  0
    4.7519    2.8074    1.4209 H   0  0  0  0  0  0  0  0  0  0  0  0
    3.2148    1.4159   -0.0276 H   0  0  0  0  0  0  0  0  0  0  0  0
    1.1526    1.2368    0.5222 H   0  0  0  0  0  0  0  0  0  0  0  0
   -0.6110   -0.8051   -2.0285 H   0  0  0  0  0  0  0  0  0  0  0  0
   -3.0227   -0.7142   -2.4512 H   0  0  0  0  0  0  0  0  0  0  0  0
   -5.3122    1.6599   -0.9569 H   0  0  0  0  0  0  0  0  0  0  0  0
   -7.3269    0.3324   -2.2829 H   0  0  0  0  0  0  0  0  0  0  0  0
   -8.7866   -1.7246    0.4287 H   0  0  0  0  0  0  0  0  0  0  0  0
   -9.6709   -5.0152   -2.1474 H   0  0  0  0  0  0  0  0  0  0  0  0
   -8.3199   -3.9980   -3.9523 H   0  0  0  0  0  0  0  0  0  0  0  0
   -8.1505    2.4340   -1.0190 H   0  0  0  0  0  0  0  0  0  0  0  0
   -9.5998    1.3294   -0.7693 H   0  0  0  0  0  0  0  0  0  0  0  0
  -10.0661    3.8691    0.7870 H   0  0  0  0  0  0  0  0  0  0  0  0
  -10.0356    4.4234    3.2187 H   0  0  0  0  0  0  0  0  0  0  0  0
   -8.7010    3.0444    4.8004 H   0  0  0  0  0  0  0  0  0  0  0  0
   -7.3771    1.0940    3.9525 H   0  0  0  0  0  0  0  0  0  0  0  0
   -3.4884    2.0906    0.7869 H   0  0  0  0  0  0  0  0  0  0  0  0
    1.0268   -4.0459   -0.5256 H   0  0  0  0  0  0  0  0  0  0  0  0
    5.5139   -2.9620   -0.3984 H   0  0  0  0  0  0  0  0  0  0  0  0
    7.6421   -2.7905    0.5501 H   0  0  0  0  0  0  0  0  0  0  0  0
    7.8608   -2.4245   -1.1959 H   0  0  0  0  0  0  0  0  0  0  0  0
    9.9926   -2.6798    0.0045 H   0  0  0  0  0  0  0  0  0  0  0  0
    8.8536   -1.4608    2.1987 H   0  0  0  0  0  0  0  0  0  0  0  0
   10.6049   -1.7032    1.9687 H   0  0  0  0  0  0  0  0  0  0  0  0
    9.6529    0.6658    2.6350 H   0  0  0  0  0  0  0  0  0  0  0  0
   11.0349    0.5454    1.4887 H   0  0  0  0  0  0  0  0  0  0  0  0
    8.6352    2.6753    1.7915 H   0  0  0  0  0  0  0  0  0  0  0  0
   10.1865    2.8685    0.8808 H   0  0  0  0  0  0  0  0  0  0  0  0
    8.5976    2.9882    0.0250 H   0  0  0  0  0  0  0  0  0  0  0  0
   10.5762    1.3522   -0.9928 H   0  0  0  0  0  0  0  0  0  0  0  0
    8.8990    0.9806   -1.5111 H   0  0  0  0  0  0  0  0  0  0  0  0
    9.8025   -1.0982   -1.9825 H   0  0  0  0  0  0  0  0  0  0  0  0
   11.1827   -0.8364   -0.8861 H   0  0  0  0  0  0  0  0  0  0  0  0
  1  2  1  0
  2  3  1  0
  3  4  2  0
  4  5  1  0
  5  6  2  0
  6  7  1  0
  7  8  1  0
  8  9  2  0
  9 10  1  0
 10 11  2  0
 11 12  1  0
 12 13  1  0
 13 14  2  0
 13 15  1  0
 15 16  1  0
 16 17  2  0
 17 18  1  0
 18 19  1  0
 18 20  2  0
 20 21  1  0
 21 22  2  0
 22 23  1  0
 15 24  1  0
 24 25  1  0
 25 26  1  0
 26 27  2  0
 27 28  1  0
 28 29  2  0
 29 30  1  0
 30 31  2  0
 31 32  1  0
 32 33  2  0
 11 34  1  0
 34 35  2  0
 35 36  1  0
  6 37  1  0
 37 38  2  0
 38 39  1  0
 39 40  2  0
 40 41  1  0
 41 42  2  0
 42 43  1  0
 43 44  1  0
 44 45  1  0
 45 46  1  0
 46 47  1  0
 47 48  1  0
 48 49  1  0
 48 50  1  0
 50 51  1  0
 42  3  1  0
 51 45  1  0
 40  5  1  0
 35  8  1  0
 22 16  1  0
 32 24  1  0
 31 26  1  0
  1 52  1  0
  1 53  1  0
  1 54  1  0
  4 55  1  0
  7 56  1  0
  9 57  1  0
 10 58  1  0
 12 59  1  0
 15 60  1  0
 17 61  1  0
 20 62  1  0
 21 63  1  0
 25 64  1  0
 25 65  1  0
 27 66  1  0
 28 67  1  0
 29 68  1  0
 30 69  1  0
 34 70  1  0
 38 71  1  0
 41 72  1  0
 44 73  1  0
 44 74  1  0
 45 75  1  0
 46 76  1  0
 46 77  1  0
 47 78  1  0
 47 79  1  0
 49 80  1  0
 49 81  1  0
 49 82  1  0
 50 83  1  0
 50 84  1  0
 51 85  1  0
 51 86  1  0
M  END
