MODEL 1
REMARK VINA RESULT:    -9.083      0.000      0.000
REMARK INTER + INTRA:         -16.172
REMARK INTER:                 -14.924
REMARK INTRA:                  -1.248
REMARK UNBOUND:                -1.248
REMARK  Name = 
REMARK  15 active torsions:
REMARK  status: ('A' for Active; 'I' for Inactive)
REMARK    1  A    between atoms: C_1  and  C_2
REMARK    2  A    between atoms: C_3  and  C_4
REMARK    3  A    between atoms: N_6  and  C_7
REMARK    4  A    between atoms: C_9  and  N_10
REMARK    5  A    between atoms: C_15  and  C_16
REMARK    6  A    between atoms: N_18  and  S_19
REMARK    7  A    between atoms: S_19  and  C_22
REMARK    8  A    between atoms: C_22  and  C_23
REMARK    9  A    between atoms: N_35  and  C_36
REMARK   10  A    between atoms: C_36  and  C_37
REMARK   11  A    between atoms: C_37  and  N_38
REMARK   12  A    between atoms: N_38  and  C_39
REMARK   13  A    between atoms: N_38  and  C_41
REMARK   14  A    between atoms: C_39  and  C_40
REMARK   15  A    between atoms: C_41  and  C_42
REMARK                            x       y       z     vdW  Elec       q    Type
REMARK                         _______ _______ _______ _____ _____    ______ ____
ROOT
ATOM      1  C   UNL     1      16.131   2.092  50.726  0.00  0.00    +0.000 A 
ATOM      2  C   UNL     1      17.505   1.730  50.713  0.00  0.00    +0.000 A 
ATOM      3  C   UNL     1      18.015   0.557  51.291  0.00  0.00    +0.000 A 
ATOM      4  C   UNL     1      17.101  -0.299  51.903  0.00  0.00    +0.000 A 
ATOM      5  C   UNL     1      15.757   0.065  52.047  0.00  0.00    +0.000 A 
ATOM      6  C   UNL     1      14.689  -0.503  52.757  0.00  0.00    +0.000 A 
ATOM      7  N   UNL     1      13.573   0.200  52.618  0.00  0.00    +0.000 NA
ATOM      8  N   UNL     1      13.900   1.148  51.707  0.00  0.00    +0.000 N 
ATOM      9  C   UNL     1      15.259   1.222  51.437  0.00  0.00    +0.000 A 
ENDROOT
BRANCH   3  10
ATOM     10  N   UNL     1      19.394   0.266  51.223  0.00  0.00    +0.000 N 
ATOM     11  C   UNL     1      20.327   0.150  52.257  0.00  0.00    +0.000 A 
ATOM     12  N   UNL     1      19.931  -0.128  53.512  0.00  0.00    +0.000 NA
ATOM     13  C   UNL     1      20.841  -0.111  54.492  0.00  0.00    +0.000 A 
ATOM     14  C   UNL     1      22.158   0.166  54.274  0.00  0.00    +0.000 A 
ATOM     15  C   UNL     1      22.494   0.433  52.963  0.00  0.00    +0.000 A 
ATOM     16  N   UNL     1      21.605   0.405  51.946  0.00  0.00    +0.000 NA
ATOM     17  H   UNL     1      19.750   0.124  50.316  0.00  0.00    +0.000 HD
BRANCH  15  18
ATOM     18  C   UNL     1      23.841   0.877  52.619  0.00  0.00    +0.000 A 
ATOM     19  C   UNL     1      24.953   0.538  53.369  0.00  0.00    +0.000 A 
ATOM     20  N   UNL     1      26.035   1.166  52.814  0.00  0.00    +0.000 N 
ATOM     21  C   UNL     1      25.674   1.924  51.723  0.00  0.00    +0.000 A 
ATOM     22  C   UNL     1      26.415   2.740  50.847  0.00  0.00    +0.000 A 
ATOM     23  C   UNL     1      25.738   3.381  49.813  0.00  0.00    +0.000 A 
ATOM     24  C   UNL     1      24.368   3.217  49.638  0.00  0.00    +0.000 A 
ATOM     25  C   UNL     1      23.638   2.406  50.510  0.00  0.00    +0.000 A 
ATOM     26  C   UNL     1      24.289   1.748  51.575  0.00  0.00    +0.000 A 
BRANCH  20  27
ATOM     27  S   UNL     1      27.597   1.116  53.501  0.00  0.00    +0.000 S 
ATOM     28  O   UNL     1      28.327   2.195  52.858  0.00  0.00    +0.000 OA
ATOM     29  O   UNL     1      27.368   1.120  54.936  0.00  0.00    +0.000 OA
BRANCH  27  30
ATOM     30  C   UNL     1      28.346  -0.427  53.032  0.00  0.00    +0.000 C 
ATOM     31  C   UNL     1      29.495  -0.781  53.960  0.00  0.00    +0.000 C 
ENDBRANCH  27  30
ENDBRANCH  20  27
ENDBRANCH  15  18
ENDBRANCH   3  10
BRANCH   1  34
ATOM     32  C   UNL     1      15.606   3.511  48.721  0.00  0.00    +0.000 C 
ATOM     33  O   UNL     1      15.988   2.783  47.817  0.00  0.00    +0.000 OA
ATOM     34  N   UNL     1      15.655   3.265  50.083  0.00  0.00    +0.000 N 
ATOM     35  H   UNL     1      15.323   3.982  50.670  0.00  0.00    +0.000 HD
BRANCH  32  38
ATOM     36  C   UNL     1      13.110   6.474  48.631  0.00  0.00    +0.000 C 
ATOM     37  C   UNL     1      13.833   5.204  48.936  0.00  0.00    +0.000 C 
ATOM     38  C   UNL     1      15.020   4.855  48.410  0.00  0.00    +0.000 C 
ENDBRANCH  32  38
ENDBRANCH   1  34
BRANCH   8  39
ATOM     39  C   UNL     1      12.798   1.967  51.238  0.00  0.00    +0.000 C 
BRANCH  39  40
ATOM     40  C   UNL     1      11.940   2.620  52.339  0.00  0.00    +0.000 C 
BRANCH  40  41
ATOM     41  N   UNL     1      12.624   3.110  53.550  0.00  0.00    +0.000 N 
ATOM     42  H   UNL     1      13.336   2.401  53.721  0.00  0.00    +0.000 HD
BRANCH  41  43
ATOM     43  C   UNL     1      13.349   4.381  53.376  0.00  0.00    +0.000 C 
ATOM     44  C   UNL     1      14.871   4.316  53.478  0.00  0.00    +0.000 C 
ENDBRANCH  41  43
BRANCH  41  45
ATOM     45  C   UNL     1      11.749   3.159  54.733  0.00  0.00    +0.000 C 
ATOM     46  C   UNL     1      11.732   1.865  55.542  0.00  0.00    +0.000 C 
ENDBRANCH  41  45
ENDBRANCH  40  41
ENDBRANCH  39  40
ENDBRANCH   8  39
TORSDOF 11
ENDMDL
MODEL 2
REMARK VINA RESULT:    -8.881      1.509      3.442
REMARK INTER + INTRA:         -15.840
REMARK INTER:                 -14.771
REMARK INTRA:                  -1.069
REMARK UNBOUND:                -1.248
REMARK  Name = 
REMARK  15 active torsions:
REMARK  status: ('A' for Active; 'I' for Inactive)
REMARK    1  A    between atoms: C_1  and  C_2
REMARK    2  A    between atoms: C_3  and  C_4
REMARK    3  A    between atoms: N_6  and  C_7
REMARK    4  A    between atoms: C_9  and  N_10
REMARK    5  A    between atoms: C_15  and  C_16
REMARK    6  A    between atoms: N_18  and  S_19
REMARK    7  A    between atoms: S_19  and  C_22
REMARK    8  A    between atoms: C_22  and  C_23
REMARK    9  A    between atoms: N_35  and  C_36
REMARK   10  A    between atoms: C_36  and  C_37
REMARK   11  A    between atoms: C_37  and  N_38
REMARK   12  A    between atoms: N_38  and  C_39
REMARK   13  A    between atoms: N_38  and  C_41
REMARK   14  A    between atoms: C_39  and  C_40
REMARK   15  A    between atoms: C_41  and  C_42
REMARK                            x       y       z     vdW  Elec       q    Type
REMARK                         _______ _______ _______ _____ _____    ______ ____
ROOT
ATOM      1  C   UNL     1      15.853  -0.135  51.288  0.00  0.00    +0.000 A 
ATOM      2  C   UNL     1      17.255  -0.368  51.238  0.00  0.00    +0.000 A 
ATOM      3  C   UNL     1      18.207   0.626  50.964  0.00  0.00    +0.000 A 
ATOM      4  C   UNL     1      17.733   1.917  50.738  0.00  0.00    +0.000 A 
ATOM      5  C   UNL     1      16.359   2.176  50.659  0.00  0.00    +0.000 A 
ATOM      6  C   UNL     1      15.626   3.309  50.277  0.00  0.00    +0.000 A 
ATOM      7  N   UNL     1      14.319   3.098  50.342  0.00  0.00    +0.000 NA
ATOM      8  N   UNL     1      14.218   1.865  50.896  0.00  0.00    +0.000 N 
ATOM      9  C   UNL     1      15.424   1.182  50.967  0.00  0.00    +0.000 A 
ENDROOT
BRANCH   3  10
ATOM     10  N   UNL     1      19.583   0.312  50.945  0.00  0.00    +0.000 N 
ATOM     11  C   UNL     1      20.468   0.145  52.013  0.00  0.00    +0.000 A 
ATOM     12  N   UNL     1      20.014  -0.169  53.240  0.00  0.00    +0.000 NA
ATOM     13  C   UNL     1      20.880  -0.201  54.258  0.00  0.00    +0.000 A 
ATOM     14  C   UNL     1      22.210   0.059  54.107  0.00  0.00    +0.000 A 
ATOM     15  C   UNL     1      22.607   0.364  52.821  0.00  0.00    +0.000 A 
ATOM     16  N   UNL     1      21.763   0.386  51.767  0.00  0.00    +0.000 NA
ATOM     17  H   UNL     1      19.976   0.194  50.050  0.00  0.00    +0.000 HD
BRANCH  15  18
ATOM     18  C   UNL     1      23.975   0.794  52.551  0.00  0.00    +0.000 A 
ATOM     19  C   UNL     1      25.055   0.367  53.303  0.00  0.00    +0.000 A 
ATOM     20  N   UNL     1      26.169   1.005  52.829  0.00  0.00    +0.000 N 
ATOM     21  C   UNL     1      25.861   1.854  51.790  0.00  0.00    +0.000 A 
ATOM     22  C   UNL     1      26.649   2.714  51.002  0.00  0.00    +0.000 A 
ATOM     23  C   UNL     1      26.021   3.452  50.002  0.00  0.00    +0.000 A 
ATOM     24  C   UNL     1      24.653   3.340  49.776  0.00  0.00    +0.000 A 
ATOM     25  C   UNL     1      23.876   2.486  50.562  0.00  0.00    +0.000 A 
ATOM     26  C   UNL     1      24.477   1.730  51.591  0.00  0.00    +0.000 A 
BRANCH  20  27
ATOM     27  S   UNL     1      27.707   0.857  53.553  0.00  0.00    +0.000 S 
ATOM     28  O   UNL     1      28.541   1.832  52.871  0.00  0.00    +0.000 OA
ATOM     29  O   UNL     1      27.453   0.961  54.981  0.00  0.00    +0.000 OA
BRANCH  27  30
ATOM     30  C   UNL     1      28.327  -0.768  53.185  0.00  0.00    +0.000 C 
ATOM     31  C   UNL     1      29.792  -0.894  53.562  0.00  0.00    +0.000 C 
ENDBRANCH  27  30
ENDBRANCH  20  27
ENDBRANCH  15  18
ENDBRANCH   3  10
BRANCH   1  34
ATOM     32  C   UNL     1      14.458  -2.164  50.788  0.00  0.00    +0.000 C 
ATOM     33  O   UNL     1      14.720  -2.337  49.607  0.00  0.00    +0.000 OA
ATOM     34  N   UNL     1      14.931  -1.162  51.619  0.00  0.00    +0.000 N 
ATOM     35  H   UNL     1      14.591  -1.163  52.543  0.00  0.00    +0.000 HD
BRANCH  32  38
ATOM     36  C   UNL     1      12.933  -4.427  53.538  0.00  0.00    +0.000 C 
ATOM     37  C   UNL     1      13.755  -3.451  52.763  0.00  0.00    +0.000 C 
ATOM     38  C   UNL     1      13.509  -3.084  51.494  0.00  0.00    +0.000 C 
ENDBRANCH  32  38
ENDBRANCH   1  34
BRANCH   8  39
ATOM     39  C   UNL     1      12.873   1.446  51.240  0.00  0.00    +0.000 C 
BRANCH  39  40
ATOM     40  C   UNL     1      11.974   2.536  51.856  0.00  0.00    +0.000 C 
BRANCH  40  41
ATOM     41  N   UNL     1      11.982   2.692  53.322  0.00  0.00    +0.000 N 
ATOM     42  H   UNL     1      11.017   2.497  53.585  0.00  0.00    +0.000 HD
BRANCH  41  43
ATOM     43  C   UNL     1      12.807   1.705  54.042  0.00  0.00    +0.000 C 
ATOM     44  C   UNL     1      12.057   0.569  54.735  0.00  0.00    +0.000 C 
ENDBRANCH  41  43
BRANCH  41  45
ATOM     45  C   UNL     1      12.296   4.062  53.760  0.00  0.00    +0.000 C 
ATOM     46  C   UNL     1      13.792   4.364  53.819  0.00  0.00    +0.000 C 
ENDBRANCH  41  45
ENDBRANCH  40  41
ENDBRANCH  39  40
ENDBRANCH   8  39
TORSDOF 11
ENDMDL
MODEL 3
REMARK VINA RESULT:    -8.820      3.325     11.497
REMARK INTER + INTRA:         -15.740
REMARK INTER:                 -13.935
REMARK INTRA:                  -1.805
REMARK UNBOUND:                -1.248
REMARK  Name = 
REMARK  15 active torsions:
REMARK  status: ('A' for Active; 'I' for Inactive)
REMARK    1  A    between atoms: C_1  and  C_2
REMARK    2  A    between atoms: C_3  and  C_4
REMARK    3  A    between atoms: N_6  and  C_7
REMARK    4  A    between atoms: C_9  and  N_10
REMARK    5  A    between atoms: C_15  and  C_16
REMARK    6  A    between atoms: N_18  and  S_19
REMARK    7  A    between atoms: S_19  and  C_22
REMARK    8  A    between atoms: C_22  and  C_23
REMARK    9  A    between atoms: N_35  and  C_36
REMARK   10  A    between atoms: C_36  and  C_37
REMARK   11  A    between atoms: C_37  and  N_38
REMARK   12  A    between atoms: N_38  and  C_39
REMARK   13  A    between atoms: N_38  and  C_41
REMARK   14  A    between atoms: C_39  and  C_40
REMARK   15  A    between atoms: C_41  and  C_42
REMARK                            x       y       z     vdW  Elec       q    Type
REMARK                         _______ _______ _______ _____ _____    ______ ____
ROOT
ATOM      1  C   UNL     1      23.043   1.556  51.774  0.00  0.00    +0.000 A 
ATOM      2  C   UNL     1      21.699   2.000  51.643  0.00  0.00    +0.000 A 
ATOM      3  C   UNL     1      20.659   1.622  52.506  0.00  0.00    +0.000 A 
ATOM      4  C   UNL     1      20.983   0.766  53.557  0.00  0.00    +0.000 A 
ATOM      5  C   UNL     1      22.263   0.207  53.662  0.00  0.00    +0.000 A 
ATOM      6  C   UNL     1      22.798  -0.793  54.486  0.00  0.00    +0.000 A 
ATOM      7  N   UNL     1      24.079  -1.016  54.226  0.00  0.00    +0.000 NA
ATOM      8  N   UNL     1      24.395  -0.059  53.320  0.00  0.00    +0.000 N 
ATOM      9  C   UNL     1      23.296   0.619  52.814  0.00  0.00    +0.000 A 
ENDROOT
BRANCH   3  10
ATOM     10  N   UNL     1      19.352   2.119  52.313  0.00  0.00    +0.000 N 
ATOM     11  C   UNL     1      18.333   1.634  51.489  0.00  0.00    +0.000 A 
ATOM     12  N   UNL     1      18.325   0.350  51.088  0.00  0.00    +0.000 NA
ATOM     13  C   UNL     1      17.401  -0.042  50.204  0.00  0.00    +0.000 A 
ATOM     14  C   UNL     1      16.457   0.800  49.697  0.00  0.00    +0.000 A 
ATOM     15  C   UNL     1      16.519   2.099  50.159  0.00  0.00    +0.000 A 
ATOM     16  N   UNL     1      17.425   2.524  51.066  0.00  0.00    +0.000 NA
ATOM     17  H   UNL     1      19.126   2.922  52.834  0.00  0.00    +0.000 HD
BRANCH  15  18
ATOM     18  C   UNL     1      15.652   3.128  49.593  0.00  0.00    +0.000 A 
ATOM     19  C   UNL     1      15.900   3.723  48.369  0.00  0.00    +0.000 A 
ATOM     20  N   UNL     1      14.943   4.681  48.172  0.00  0.00    +0.000 N 
ATOM     21  C   UNL     1      14.070   4.750  49.234  0.00  0.00    +0.000 A 
ATOM     22  C   UNL     1      12.952   5.564  49.493  0.00  0.00    +0.000 A 
ATOM     23  C   UNL     1      12.261   5.375  50.687  0.00  0.00    +0.000 A 
ATOM     24  C   UNL     1      12.655   4.403  51.601  0.00  0.00    +0.000 A 
ATOM     25  C   UNL     1      13.766   3.598  51.340  0.00  0.00    +0.000 A 
ATOM     26  C   UNL     1      14.496   3.768  50.144  0.00  0.00    +0.000 A 
BRANCH  20  27
ATOM     27  S   UNL     1      14.946   5.741  46.834  0.00  0.00    +0.000 S 
ATOM     28  O   UNL     1      13.703   5.468  46.133  0.00  0.00    +0.000 OA
ATOM     29  O   UNL     1      15.208   7.052  47.405  0.00  0.00    +0.000 OA
BRANCH  27  30
ATOM     30  C   UNL     1      16.300   5.281  45.779  0.00  0.00    +0.000 C 
ATOM     31  C   UNL     1      15.809   4.531  44.554  0.00  0.00    +0.000 C 
ENDBRANCH  27  30
ENDBRANCH  20  27
ENDBRANCH  15  18
ENDBRANCH   3  10
BRANCH   1  34
ATOM     32  C   UNL     1      24.911   3.092  51.095  0.00  0.00    +0.000 C 
ATOM     33  O   UNL     1      24.907   3.884  52.025  0.00  0.00    +0.000 OA
ATOM     34  N   UNL     1      24.072   2.006  50.906  0.00  0.00    +0.000 N 
ATOM     35  H   UNL     1      24.204   1.489  50.079  0.00  0.00    +0.000 HD
BRANCH  32  38
ATOM     36  C   UNL     1      27.465   4.723  48.680  0.00  0.00    +0.000 C 
ATOM     37  C   UNL     1      26.535   4.419  49.807  0.00  0.00    +0.000 C 
ATOM     38  C   UNL     1      25.893   3.249  49.973  0.00  0.00    +0.000 C 
ENDBRANCH  32  38
ENDBRANCH   1  34
BRANCH   8  39
ATOM     39  C   UNL     1      25.803   0.035  52.980  0.00  0.00    +0.000 C 
BRANCH  39  40
ATOM     40  C   UNL     1      26.669   0.851  53.958  0.00  0.00    +0.000 C 
BRANCH  40  41
ATOM     41  N   UNL     1      27.972   0.293  54.361  0.00  0.00    +0.000 N 
ATOM     42  H   UNL     1      27.800  -0.051  55.305  0.00  0.00    +0.000 HD
BRANCH  41  43
ATOM     43  C   UNL     1      28.409  -0.878  53.578  0.00  0.00    +0.000 C 
ATOM     44  C   UNL     1      29.888  -1.246  53.674  0.00  0.00    +0.000 C 
ENDBRANCH  41  43
BRANCH  41  45
ATOM     45  C   UNL     1      29.040   1.303  54.441  0.00  0.00    +0.000 C 
ATOM     46  C   UNL     1      28.770   2.553  53.607  0.00  0.00    +0.000 C 
ENDBRANCH  41  45
ENDBRANCH  40  41
ENDBRANCH  39  40
ENDBRANCH   8  39
TORSDOF 11
ENDMDL
MODEL 4
REMARK VINA RESULT:    -8.242      4.120     11.423
REMARK INTER + INTRA:         -14.789
REMARK INTER:                 -13.153
REMARK INTRA:                  -1.636
REMARK UNBOUND:                -1.248
REMARK  Name = 
REMARK  15 active torsions:
REMARK  status: ('A' for Active; 'I' for Inactive)
REMARK    1  A    between atoms: C_1  and  C_2
REMARK    2  A    between atoms: C_3  and  C_4
REMARK    3  A    between atoms: N_6  and  C_7
REMARK    4  A    between atoms: C_9  and  N_10
REMARK    5  A    between atoms: C_15  and  C_16
REMARK    6  A    between atoms: N_18  and  S_19
REMARK    7  A    between atoms: S_19  and  C_22
REMARK    8  A    between atoms: C_22  and  C_23
REMARK    9  A    between atoms: N_35  and  C_36
REMARK   10  A    between atoms: C_36  and  C_37
REMARK   11  A    between atoms: C_37  and  N_38
REMARK   12  A    between atoms: N_38  and  C_39
REMARK   13  A    between atoms: N_38  and  C_41
REMARK   14  A    between atoms: C_39  and  C_40
REMARK   15  A    between atoms: C_41  and  C_42
REMARK                            x       y       z     vdW  Elec       q    Type
REMARK                         _______ _______ _______ _____ _____    ______ ____
ROOT
ATOM      1  C   UNL     1      23.461   1.860  51.168  0.00  0.00    +0.000 A 
ATOM      2  C   UNL     1      22.222   1.603  50.520  0.00  0.00    +0.000 A 
ATOM      3  C   UNL     1      21.262   0.695  50.991  0.00  0.00    +0.000 A 
ATOM      4  C   UNL     1      21.551   0.019  52.174  0.00  0.00    +0.000 A 
ATOM      5  C   UNL     1      22.803   0.148  52.789  0.00  0.00    +0.000 A 
ATOM      6  C   UNL     1      23.413  -0.531  53.855  0.00  0.00    +0.000 A 
ATOM      7  N   UNL     1      24.637  -0.079  54.094  0.00  0.00    +0.000 NA
ATOM      8  N   UNL     1      24.756   0.983  53.262  0.00  0.00    +0.000 N 
ATOM      9  C   UNL     1      23.736   1.081  52.325  0.00  0.00    +0.000 A 
ENDROOT
BRANCH   3  10
ATOM     10  N   UNL     1      20.051   0.507  50.291  0.00  0.00    +0.000 N 
ATOM     11  C   UNL     1      18.783   1.033  50.556  0.00  0.00    +0.000 A 
ATOM     12  N   UNL     1      18.643   2.156  51.283  0.00  0.00    +0.000 NA
ATOM     13  C   UNL     1      17.412   2.557  51.615  0.00  0.00    +0.000 A 
ATOM     14  C   UNL     1      16.287   1.884  51.241  0.00  0.00    +0.000 A 
ATOM     15  C   UNL     1      16.505   0.747  50.489  0.00  0.00    +0.000 A 
ATOM     16  N   UNL     1      17.734   0.324  50.119  0.00  0.00    +0.000 NA
ATOM     17  H   UNL     1      20.107  -0.078  49.502  0.00  0.00    +0.000 HD
BRANCH  15  18
ATOM     18  C   UNL     1      15.396  -0.135  50.141  0.00  0.00    +0.000 A 
ATOM     19  C   UNL     1      14.930  -1.120  50.993  0.00  0.00    +0.000 A 
ATOM     20  N   UNL     1      13.939  -1.799  50.339  0.00  0.00    +0.000 N 
ATOM     21  C   UNL     1      13.738  -1.303  49.070  0.00  0.00    +0.000 A 
ATOM     22  C   UNL     1      12.856  -1.668  48.036  0.00  0.00    +0.000 A 
ATOM     23  C   UNL     1      12.898  -0.944  46.847  0.00  0.00    +0.000 A 
ATOM     24  C   UNL     1      13.780   0.118  46.682  0.00  0.00    +0.000 A 
ATOM     25  C   UNL     1      14.654   0.477  47.711  0.00  0.00    +0.000 A 
ATOM     26  C   UNL     1      14.645  -0.241  48.927  0.00  0.00    +0.000 A 
BRANCH  20  27
ATOM     27  S   UNL     1      13.169  -3.179  50.985  0.00  0.00    +0.000 S 
ATOM     28  O   UNL     1      11.796  -2.769  51.224  0.00  0.00    +0.000 OA
ATOM     29  O   UNL     1      13.477  -4.245  50.046  0.00  0.00    +0.000 OA
BRANCH  27  30
ATOM     30  C   UNL     1      13.929  -3.541  52.551  0.00  0.00    +0.000 C 
ATOM     31  C   UNL     1      15.371  -3.980  52.371  0.00  0.00    +0.000 C 
ENDBRANCH  27  30
ENDBRANCH  20  27
ENDBRANCH  15  18
ENDBRANCH   3  10
BRANCH   1  34
ATOM     32  C   UNL     1      24.246   4.204  50.721  0.00  0.00    +0.000 C 
ATOM     33  O   UNL     1      23.303   4.849  51.154  0.00  0.00    +0.000 OA
ATOM     34  N   UNL     1      24.380   2.826  50.681  0.00  0.00    +0.000 N 
ATOM     35  H   UNL     1      25.203   2.478  50.269  0.00  0.00    +0.000 HD
BRANCH  32  38
ATOM     36  C   UNL     1      27.510   4.801  48.720  0.00  0.00    +0.000 C 
ATOM     37  C   UNL     1      26.255   4.239  49.300  0.00  0.00    +0.000 C 
ATOM     38  C   UNL     1      25.430   4.905  50.127  0.00  0.00    +0.000 C 
ENDBRANCH  32  38
ENDBRANCH   1  34
BRANCH   8  39
ATOM     39  C   UNL     1      25.957   1.779  53.437  0.00  0.00    +0.000 C 
BRANCH  39  40
ATOM     40  C   UNL     1      27.277   1.083  53.052  0.00  0.00    +0.000 C 
BRANCH  40  41
ATOM     41  N   UNL     1      27.711  -0.073  53.857  0.00  0.00    +0.000 N 
ATOM     42  H   UNL     1      26.960  -0.182  54.537  0.00  0.00    +0.000 HD
BRANCH  41  43
ATOM     43  C   UNL     1      27.776  -1.348  53.118  0.00  0.00    +0.000 C 
ATOM     44  C   UNL     1      29.120  -2.073  53.132  0.00  0.00    +0.000 C 
ENDBRANCH  41  43
BRANCH  41  45
ATOM     45  C   UNL     1      28.958   0.170  54.601  0.00  0.00    +0.000 C 
ATOM     46  C   UNL     1      29.364   1.640  54.659  0.00  0.00    +0.000 C 
ENDBRANCH  41  45
ENDBRANCH  40  41
ENDBRANCH  39  40
ENDBRANCH   8  39
TORSDOF 11
ENDMDL
MODEL 5
REMARK VINA RESULT:    -8.198      4.866      7.767
REMARK INTER + INTRA:         -14.718
REMARK INTER:                 -13.348
REMARK INTRA:                  -1.370
REMARK UNBOUND:                -1.248
REMARK  Name = 
REMARK  15 active torsions:
REMARK  status: ('A' for Active; 'I' for Inactive)
REMARK    1  A    between atoms: C_1  and  C_2
REMARK    2  A    between atoms: C_3  and  C_4
REMARK    3  A    between atoms: N_6  and  C_7
REMARK    4  A    between atoms: C_9  and  N_10
REMARK    5  A    between atoms: C_15  and  C_16
REMARK    6  A    between atoms: N_18  and  S_19
REMARK    7  A    between atoms: S_19  and  C_22
REMARK    8  A    between atoms: C_22  and  C_23
REMARK    9  A    between atoms: N_35  and  C_36
REMARK   10  A    between atoms: C_36  and  C_37
REMARK   11  A    between atoms: C_37  and  N_38
REMARK   12  A    between atoms: N_38  and  C_39
REMARK   13  A    between atoms: N_38  and  C_41
REMARK   14  A    between atoms: C_39  and  C_40
REMARK   15  A    between atoms: C_41  and  C_42
REMARK                            x       y       z     vdW  Elec       q    Type
REMARK                         _______ _______ _______ _____ _____    ______ ____
ROOT
ATOM      1  C   UNL     1      21.665   2.669  52.291  0.00  0.00    +0.000 A 
ATOM      2  C   UNL     1      22.715   3.507  51.827  0.00  0.00    +0.000 A 
ATOM      3  C   UNL     1      24.059   3.113  51.749  0.00  0.00    +0.000 A 
ATOM      4  C   UNL     1      24.365   1.813  52.144  0.00  0.00    +0.000 A 
ATOM      5  C   UNL     1      23.391   0.986  52.718  0.00  0.00    +0.000 A 
ATOM      6  C   UNL     1      23.457  -0.263  53.352  0.00  0.00    +0.000 A 
ATOM      7  N   UNL     1      22.265  -0.675  53.762  0.00  0.00    +0.000 NA
ATOM      8  N   UNL     1      21.415   0.258  53.269  0.00  0.00    +0.000 N 
ATOM      9  C   UNL     1      22.050   1.382  52.758  0.00  0.00    +0.000 A 
ENDROOT
BRANCH   3  10
ATOM     10  N   UNL     1      25.040   4.006  51.265  0.00  0.00    +0.000 N 
ATOM     11  C   UNL     1      24.930   5.367  50.971  0.00  0.00    +0.000 A 
ATOM     12  N   UNL     1      23.965   6.116  51.532  0.00  0.00    +0.000 NA
ATOM     13  C   UNL     1      23.820   7.384  51.133  0.00  0.00    +0.000 A 
ATOM     14  C   UNL     1      24.617   7.958  50.187  0.00  0.00    +0.000 A 
ATOM     15  C   UNL     1      25.592   7.135  49.662  0.00  0.00    +0.000 A 
ATOM     16  N   UNL     1      25.778   5.856  50.056  0.00  0.00    +0.000 NA
ATOM     17  H   UNL     1      25.929   3.612  51.113  0.00  0.00    +0.000 HD
BRANCH  15  18
ATOM     18  C   UNL     1      26.420   7.585  48.547  0.00  0.00    +0.000 A 
ATOM     19  C   UNL     1      27.769   7.857  48.682  0.00  0.00    +0.000 A 
ATOM     20  N   UNL     1      28.223   8.315  47.475  0.00  0.00    +0.000 N 
ATOM     21  C   UNL     1      27.211   8.368  46.542  0.00  0.00    +0.000 A 
ATOM     22  C   UNL     1      27.183   8.770  45.193  0.00  0.00    +0.000 A 
ATOM     23  C   UNL     1      25.973   8.695  44.508  0.00  0.00    +0.000 A 
ATOM     24  C   UNL     1      24.821   8.227  45.130  0.00  0.00    +0.000 A 
ATOM     25  C   UNL     1      24.854   7.829  46.469  0.00  0.00    +0.000 A 
ATOM     26  C   UNL     1      26.061   7.901  47.198  0.00  0.00    +0.000 A 
BRANCH  20  27
ATOM     27  S   UNL     1      29.814   8.883  47.230  0.00  0.00    +0.000 S 
ATOM     28  O   UNL     1      30.385   7.990  46.236  0.00  0.00    +0.000 OA
ATOM     29  O   UNL     1      29.659  10.302  46.957  0.00  0.00    +0.000 OA
BRANCH  27  30
ATOM     30  C   UNL     1      30.706   8.673  48.753  0.00  0.00    +0.000 C 
ATOM     31  C   UNL     1      30.689   9.948  49.577  0.00  0.00    +0.000 C 
ENDBRANCH  27  30
ENDBRANCH  20  27
ENDBRANCH  15  18
ENDBRANCH   3  10
BRANCH   1  34
ATOM     32  C   UNL     1      19.449   3.180  51.223  0.00  0.00    +0.000 C 
ATOM     33  O   UNL     1      19.696   2.933  50.052  0.00  0.00    +0.000 OA
ATOM     34  N   UNL     1      20.311   3.095  52.304  0.00  0.00    +0.000 N 
ATOM     35  H   UNL     1      19.944   3.359  53.178  0.00  0.00    +0.000 HD
BRANCH  32  38
ATOM     36  C   UNL     1      15.677   4.043  51.016  0.00  0.00    +0.000 C 
ATOM     37  C   UNL     1      17.056   3.530  50.766  0.00  0.00    +0.000 C 
ATOM     38  C   UNL     1      18.085   3.653  51.624  0.00  0.00    +0.000 C 
ENDBRANCH  32  38
ENDBRANCH   1  34
BRANCH   8  39
ATOM     39  C   UNL     1      20.004  -0.038  53.431  0.00  0.00    +0.000 C 
BRANCH  39  40
ATOM     40  C   UNL     1      19.212  -0.233  52.123  0.00  0.00    +0.000 C 
BRANCH  40  41
ATOM     41  N   UNL     1      17.940  -0.974  52.188  0.00  0.00    +0.000 N 
ATOM     42  H   UNL     1      18.074  -1.733  51.521  0.00  0.00    +0.000 HD
BRANCH  41  43
ATOM     43  C   UNL     1      17.668  -1.619  53.486  0.00  0.00    +0.000 C 
ATOM     44  C   UNL     1      17.356  -3.113  53.451  0.00  0.00    +0.000 C 
ENDBRANCH  41  43
BRANCH  41  45
ATOM     45  C   UNL     1      16.782  -0.183  51.739  0.00  0.00    +0.000 C 
ATOM     46  C   UNL     1      16.602  -0.160  50.223  0.00  0.00    +0.000 C 
ENDBRANCH  41  45
ENDBRANCH  40  41
ENDBRANCH  39  40
ENDBRANCH   8  39
TORSDOF 11
ENDMDL
MODEL 6
REMARK VINA RESULT:    -8.182      3.594     11.663
REMARK INTER + INTRA:         -14.691
REMARK INTER:                 -13.223
REMARK INTRA:                  -1.468
REMARK UNBOUND:                -1.248
REMARK  Name = 
REMARK  15 active torsions:
REMARK  status: ('A' for Active; 'I' for Inactive)
REMARK    1  A    between atoms: C_1  and  C_2
REMARK    2  A    between atoms: C_3  and  C_4
REMARK    3  A    between atoms: N_6  and  C_7
REMARK    4  A    between atoms: C_9  and  N_10
REMARK    5  A    between atoms: C_15  and  C_16
REMARK    6  A    between atoms: N_18  and  S_19
REMARK    7  A    between atoms: S_19  and  C_22
REMARK    8  A    between atoms: C_22  and  C_23
REMARK    9  A    between atoms: N_35  and  C_36
REMARK   10  A    between atoms: C_36  and  C_37
REMARK   11  A    between atoms: C_37  and  N_38
REMARK   12  A    between atoms: N_38  and  C_39
REMARK   13  A    between atoms: N_38  and  C_41
REMARK   14  A    between atoms: C_39  and  C_40
REMARK   15  A    between atoms: C_41  and  C_42
REMARK                            x       y       z     vdW  Elec       q    Type
REMARK                         _______ _______ _______ _____ _____    ______ ____
ROOT
ATOM      1  C   UNL     1      23.592   2.213  50.604  0.00  0.00    +0.000 A 
ATOM      2  C   UNL     1      22.284   2.331  50.059  0.00  0.00    +0.000 A 
ATOM      3  C   UNL     1      21.143   1.739  50.621  0.00  0.00    +0.000 A 
ATOM      4  C   UNL     1      21.318   1.002  51.790  0.00  0.00    +0.000 A 
ATOM      5  C   UNL     1      22.598   0.758  52.302  0.00  0.00    +0.000 A 
ATOM      6  C   UNL     1      23.068  -0.075  53.328  0.00  0.00    +0.000 A 
ATOM      7  N   UNL     1      24.385  -0.000  53.463  0.00  0.00    +0.000 NA
ATOM      8  N   UNL     1      24.741   0.986  52.604  0.00  0.00    +0.000 N 
ATOM      9  C   UNL     1      23.722   1.381  51.750  0.00  0.00    +0.000 A 
ENDROOT
BRANCH   3  10
ATOM     10  N   UNL     1      19.877   1.916  50.022  0.00  0.00    +0.000 N 
ATOM     11  C   UNL     1      19.292   3.078  49.513  0.00  0.00    +0.000 A 
ATOM     12  N   UNL     1      20.051   4.121  49.132  0.00  0.00    +0.000 NA
ATOM     13  C   UNL     1      19.448   5.256  48.766  0.00  0.00    +0.000 A 
ATOM     14  C   UNL     1      18.093   5.403  48.749  0.00  0.00    +0.000 A 
ATOM     15  C   UNL     1      17.377   4.291  49.143  0.00  0.00    +0.000 A 
ATOM     16  N   UNL     1      17.953   3.123  49.500  0.00  0.00    +0.000 NA
ATOM     17  H   UNL     1      19.328   1.102  49.951  0.00  0.00    +0.000 HD
BRANCH  15  18
ATOM     18  C   UNL     1      15.927   4.361  49.300  0.00  0.00    +0.000 A 
ATOM     19  C   UNL     1      15.306   4.301  50.534  0.00  0.00    +0.000 A 
ATOM     20  N   UNL     1      13.955   4.327  50.320  0.00  0.00    +0.000 N 
ATOM     21  C   UNL     1      13.657   4.391  48.977  0.00  0.00    +0.000 A 
ATOM     22  C   UNL     1      12.437   4.430  48.276  0.00  0.00    +0.000 A 
ATOM     23  C   UNL     1      12.478   4.503  46.886  0.00  0.00    +0.000 A 
ATOM     24  C   UNL     1      13.688   4.546  46.202  0.00  0.00    +0.000 A 
ATOM     25  C   UNL     1      14.896   4.507  46.903  0.00  0.00    +0.000 A 
ATOM     26  C   UNL     1      14.893   4.423  48.311  0.00  0.00    +0.000 A 
BRANCH  20  27
ATOM     27  S   UNL     1      12.808   4.150  51.571  0.00  0.00    +0.000 S 
ATOM     28  O   UNL     1      12.074   5.404  51.592  0.00  0.00    +0.000 OA
ATOM     29  O   UNL     1      12.135   2.895  51.278  0.00  0.00    +0.000 OA
BRANCH  27  30
ATOM     30  C   UNL     1      13.696   3.993  53.104  0.00  0.00    +0.000 C 
ATOM     31  C   UNL     1      12.808   4.331  54.288  0.00  0.00    +0.000 C 
ENDBRANCH  27  30
ENDBRANCH  20  27
ENDBRANCH  15  18
ENDBRANCH   3  10
BRANCH   1  34
ATOM     32  C   UNL     1      25.182   4.139  50.332  0.00  0.00    +0.000 C 
ATOM     33  O   UNL     1      24.713   4.938  51.127  0.00  0.00    +0.000 OA
ATOM     34  N   UNL     1      24.709   2.873  50.028  0.00  0.00    +0.000 N 
ATOM     35  H   UNL     1      25.203   2.375  49.337  0.00  0.00    +0.000 HD
BRANCH  32  38
ATOM     36  C   UNL     1      27.666   6.190  48.179  0.00  0.00    +0.000 C 
ATOM     37  C   UNL     1      26.546   5.743  49.057  0.00  0.00    +0.000 C 
ATOM     38  C   UNL     1      26.400   4.494  49.533  0.00  0.00    +0.000 C 
ENDBRANCH  32  38
ENDBRANCH   1  34
BRANCH   8  39
ATOM     39  C   UNL     1      26.131   1.397  52.671  0.00  0.00    +0.000 C 
BRANCH  39  40
ATOM     40  C   UNL     1      26.867   1.040  53.977  0.00  0.00    +0.000 C 
BRANCH  40  41
ATOM     41  N   UNL     1      27.616  -0.228  54.026  0.00  0.00    +0.000 N 
ATOM     42  H   UNL     1      27.045  -0.815  54.633  0.00  0.00    +0.000 HD
BRANCH  41  43
ATOM     43  C   UNL     1      27.704  -0.941  52.738  0.00  0.00    +0.000 C 
ATOM     44  C   UNL     1      27.108  -2.347  52.697  0.00  0.00    +0.000 C 
ENDBRANCH  41  43
BRANCH  41  45
ATOM     45  C   UNL     1      28.944  -0.098  54.648  0.00  0.00    +0.000 C 
ATOM     46  C   UNL     1      30.102  -0.198  53.659  0.00  0.00    +0.000 C 
ENDBRANCH  41  45
ENDBRANCH  40  41
ENDBRANCH  39  40
ENDBRANCH   8  39
TORSDOF 11
ENDMDL
MODEL 7
REMARK VINA RESULT:    -8.042      5.108      8.196
REMARK INTER + INTRA:         -14.462
REMARK INTER:                 -12.988
REMARK INTRA:                  -1.474
REMARK UNBOUND:                -1.248
REMARK  Name = 
REMARK  15 active torsions:
REMARK  status: ('A' for Active; 'I' for Inactive)
REMARK    1  A    between atoms: C_1  and  C_2
REMARK    2  A    between atoms: C_3  and  C_4
REMARK    3  A    between atoms: N_6  and  C_7
REMARK    4  A    between atoms: C_9  and  N_10
REMARK    5  A    between atoms: C_15  and  C_16
REMARK    6  A    between atoms: N_18  and  S_19
REMARK    7  A    between atoms: S_19  and  C_22
REMARK    8  A    between atoms: C_22  and  C_23
REMARK    9  A    between atoms: N_35  and  C_36
REMARK   10  A    between atoms: C_36  and  C_37
REMARK   11  A    between atoms: C_37  and  N_38
REMARK   12  A    between atoms: N_38  and  C_39
REMARK   13  A    between atoms: N_38  and  C_41
REMARK   14  A    between atoms: C_39  and  C_40
REMARK   15  A    between atoms: C_41  and  C_42
REMARK                            x       y       z     vdW  Elec       q    Type
REMARK                         _______ _______ _______ _____ _____    ______ ____
ROOT
ATOM      1  C   UNL     1      21.621   2.562  52.090  0.00  0.00    +0.000 A 
ATOM      2  C   UNL     1      22.638   3.352  51.488  0.00  0.00    +0.000 A 
ATOM      3  C   UNL     1      23.972   2.941  51.345  0.00  0.00    +0.000 A 
ATOM      4  C   UNL     1      24.301   1.673  51.820  0.00  0.00    +0.000 A 
ATOM      5  C   UNL     1      23.368   0.903  52.524  0.00  0.00    +0.000 A 
ATOM      6  C   UNL     1      23.476  -0.294  53.249  0.00  0.00    +0.000 A 
ATOM      7  N   UNL     1      22.315  -0.661  53.774  0.00  0.00    +0.000 NA
ATOM      8  N   UNL     1      21.435   0.238  53.271  0.00  0.00    +0.000 N 
ATOM      9  C   UNL     1      22.035   1.313  52.629  0.00  0.00    +0.000 A 
ENDROOT
BRANCH   3  10
ATOM     10  N   UNL     1      24.918   3.784  50.724  0.00  0.00    +0.000 N 
ATOM     11  C   UNL     1      24.921   5.177  50.606  0.00  0.00    +0.000 A 
ATOM     12  N   UNL     1      24.222   5.941  51.463  0.00  0.00    +0.000 NA
ATOM     13  C   UNL     1      24.154   7.258  51.242  0.00  0.00    +0.000 A 
ATOM     14  C   UNL     1      24.773   7.865  50.190  0.00  0.00    +0.000 A 
ATOM     15  C   UNL     1      25.479   7.022  49.357  0.00  0.00    +0.000 A 
ATOM     16  N   UNL     1      25.585   5.691  49.561  0.00  0.00    +0.000 NA
ATOM     17  H   UNL     1      25.687   3.325  50.316  0.00  0.00    +0.000 HD
BRANCH  15  18
ATOM     18  C   UNL     1      26.072   7.526  48.122  0.00  0.00    +0.000 A 
ATOM     19  C   UNL     1      25.316   8.072  47.100  0.00  0.00    +0.000 A 
ATOM     20  N   UNL     1      26.167   8.380  46.074  0.00  0.00    +0.000 N 
ATOM     21  C   UNL     1      27.467   8.044  46.378  0.00  0.00    +0.000 A 
ATOM     22  C   UNL     1      28.671   8.157  45.656  0.00  0.00    +0.000 A 
ATOM     23  C   UNL     1      29.846   7.722  46.263  0.00  0.00    +0.000 A 
ATOM     24  C   UNL     1      29.841   7.197  47.551  0.00  0.00    +0.000 A 
ATOM     25  C   UNL     1      28.644   7.087  48.263  0.00  0.00    +0.000 A 
ATOM     26  C   UNL     1      27.432   7.509  47.676  0.00  0.00    +0.000 A 
BRANCH  20  27
ATOM     27  S   UNL     1      25.634   8.967  44.563  0.00  0.00    +0.000 S 
ATOM     28  O   UNL     1      26.250  10.276  44.427  0.00  0.00    +0.000 OA
ATOM     29  O   UNL     1      25.936   7.898  43.625  0.00  0.00    +0.000 OA
BRANCH  27  30
ATOM     30  C   UNL     1      23.871   9.183  44.656  0.00  0.00    +0.000 C 
ATOM     31  C   UNL     1      23.158   8.293  43.653  0.00  0.00    +0.000 C 
ENDBRANCH  27  30
ENDBRANCH  20  27
ENDBRANCH  15  18
ENDBRANCH   3  10
BRANCH   1  34
ATOM     32  C   UNL     1      19.296   2.875  51.193  0.00  0.00    +0.000 C 
ATOM     33  O   UNL     1      19.414   2.394  50.076  0.00  0.00    +0.000 OA
ATOM     34  N   UNL     1      20.273   3.000  52.167  0.00  0.00    +0.000 N 
ATOM     35  H   UNL     1      20.003   3.440  53.004  0.00  0.00    +0.000 HD
BRANCH  32  38
ATOM     36  C   UNL     1      15.627   4.114  51.071  0.00  0.00    +0.000 C 
ATOM     37  C   UNL     1      16.952   3.497  50.773  0.00  0.00    +0.000 C 
ATOM     38  C   UNL     1      17.980   3.438  51.637  0.00  0.00    +0.000 C 
ENDBRANCH  32  38
ENDBRANCH   1  34
BRANCH   8  39
ATOM     39  C   UNL     1      20.038  -0.033  53.556  0.00  0.00    +0.000 C 
BRANCH  39  40
ATOM     40  C   UNL     1      19.172  -0.408  52.337  0.00  0.00    +0.000 C 
BRANCH  40  41
ATOM     41  N   UNL     1      17.983  -1.248  52.566  0.00  0.00    +0.000 N 
ATOM     42  H   UNL     1      17.944  -1.833  51.731  0.00  0.00    +0.000 HD
BRANCH  41  43
ATOM     43  C   UNL     1      18.094  -2.176  53.706  0.00  0.00    +0.000 C 
ATOM     44  C   UNL     1      17.315  -3.485  53.596  0.00  0.00    +0.000 C 
ENDBRANCH  41  43
BRANCH  41  45
ATOM     45  C   UNL     1      16.730  -0.478  52.631  0.00  0.00    +0.000 C 
ATOM     46  C   UNL     1      16.108  -0.196  51.266  0.00  0.00    +0.000 C 
ENDBRANCH  41  45
ENDBRANCH  40  41
ENDBRANCH  39  40
ENDBRANCH   8  39
TORSDOF 11
ENDMDL
MODEL 8
REMARK VINA RESULT:    -8.036      4.329     11.070
REMARK INTER + INTRA:         -14.451
REMARK INTER:                 -13.288
REMARK INTRA:                  -1.162
REMARK UNBOUND:                -1.248
REMARK  Name = 
REMARK  15 active torsions:
REMARK  status: ('A' for Active; 'I' for Inactive)
REMARK    1  A    between atoms: C_1  and  C_2
REMARK    2  A    between atoms: C_3  and  C_4
REMARK    3  A    between atoms: N_6  and  C_7
REMARK    4  A    between atoms: C_9  and  N_10
REMARK    5  A    between atoms: C_15  and  C_16
REMARK    6  A    between atoms: N_18  and  S_19
REMARK    7  A    between atoms: S_19  and  C_22
REMARK    8  A    between atoms: C_22  and  C_23
REMARK    9  A    between atoms: N_35  and  C_36
REMARK   10  A    between atoms: C_36  and  C_37
REMARK   11  A    between atoms: C_37  and  N_38
REMARK   12  A    between atoms: N_38  and  C_39
REMARK   13  A    between atoms: N_38  and  C_41
REMARK   14  A    between atoms: C_39  and  C_40
REMARK   15  A    between atoms: C_41  and  C_42
REMARK                            x       y       z     vdW  Elec       q    Type
REMARK                         _______ _______ _______ _____ _____    ______ ____
ROOT
ATOM      1  C   UNL     1      23.403   4.333  49.393  0.00  0.00    +0.000 A 
ATOM      2  C   UNL     1      22.188   3.834  49.936  0.00  0.00    +0.000 A 
ATOM      3  C   UNL     1      22.112   3.029  51.082  0.00  0.00    +0.000 A 
ATOM      4  C   UNL     1      23.310   2.717  51.722  0.00  0.00    +0.000 A 
ATOM      5  C   UNL     1      24.541   3.084  51.164  0.00  0.00    +0.000 A 
ATOM      6  C   UNL     1      25.866   2.757  51.488  0.00  0.00    +0.000 A 
ATOM      7  N   UNL     1      26.733   3.333  50.665  0.00  0.00    +0.000 NA
ATOM      8  N   UNL     1      25.960   4.136  49.894  0.00  0.00    +0.000 N 
ATOM      9  C   UNL     1      24.598   3.914  50.040  0.00  0.00    +0.000 A 
ENDROOT
BRANCH   3  10
ATOM     10  N   UNL     1      20.861   2.584  51.562  0.00  0.00    +0.000 N 
ATOM     11  C   UNL     1      20.555   1.450  52.319  0.00  0.00    +0.000 A 
ATOM     12  N   UNL     1      21.497   0.849  53.069  0.00  0.00    +0.000 NA
ATOM     13  C   UNL     1      21.194  -0.301  53.681  0.00  0.00    +0.000 A 
ATOM     14  C   UNL     1      19.968  -0.889  53.588  0.00  0.00    +0.000 A 
ATOM     15  C   UNL     1      19.049  -0.213  52.811  0.00  0.00    +0.000 A 
ATOM     16  N   UNL     1      19.315   0.960  52.195  0.00  0.00    +0.000 NA
ATOM     17  H   UNL     1      20.094   3.155  51.331  0.00  0.00    +0.000 HD
BRANCH  15  18
ATOM     18  C   UNL     1      17.746  -0.805  52.522  0.00  0.00    +0.000 A 
ATOM     19  C   UNL     1      16.746  -0.119  51.857  0.00  0.00    +0.000 A 
ATOM     20  N   UNL     1      15.646  -0.931  51.811  0.00  0.00    +0.000 N 
ATOM     21  C   UNL     1      15.881  -2.135  52.436  0.00  0.00    +0.000 A 
ATOM     22  C   UNL     1      15.072  -3.267  52.650  0.00  0.00    +0.000 A 
ATOM     23  C   UNL     1      15.623  -4.352  53.327  0.00  0.00    +0.000 A 
ATOM     24  C   UNL     1      16.939  -4.328  53.775  0.00  0.00    +0.000 A 
ATOM     25  C   UNL     1      17.737  -3.202  53.561  0.00  0.00    +0.000 A 
ATOM     26  C   UNL     1      17.210  -2.081  52.886  0.00  0.00    +0.000 A 
BRANCH  20  27
ATOM     27  S   UNL     1      14.141  -0.429  51.182  0.00  0.00    +0.000 S 
ATOM     28  O   UNL     1      13.881  -1.322  50.066  0.00  0.00    +0.000 OA
ATOM     29  O   UNL     1      13.254  -0.395  52.333  0.00  0.00    +0.000 OA
BRANCH  27  30
ATOM     30  C   UNL     1      14.340   1.220  50.548  0.00  0.00    +0.000 C 
ATOM     31  C   UNL     1      13.210   2.123  51.008  0.00  0.00    +0.000 C 
ENDBRANCH  27  30
ENDBRANCH  20  27
ENDBRANCH  15  18
ENDBRANCH   3  10
BRANCH   1  34
ATOM     32  C   UNL     1      23.206   6.554  48.236  0.00  0.00    +0.000 C 
ATOM     33  O   UNL     1      22.921   7.279  49.177  0.00  0.00    +0.000 OA
ATOM     34  N   UNL     1      23.427   5.187  48.259  0.00  0.00    +0.000 N 
ATOM     35  H   UNL     1      23.622   4.760  47.394  0.00  0.00    +0.000 HD
BRANCH  32  38
ATOM     36  C   UNL     1      24.451   8.739  45.288  0.00  0.00    +0.000 C 
ATOM     37  C   UNL     1      24.283   8.038  46.595  0.00  0.00    +0.000 C 
ATOM     38  C   UNL     1      23.333   7.124  46.855  0.00  0.00    +0.000 C 
ENDBRANCH  32  38
ENDBRANCH   1  34
BRANCH   8  39
ATOM     39  C   UNL     1      26.683   5.023  49.002  0.00  0.00    +0.000 C 
BRANCH  39  40
ATOM     40  C   UNL     1      26.507   6.529  49.276  0.00  0.00    +0.000 C 
BRANCH  40  41
ATOM     41  N   UNL     1      27.717   7.368  49.335  0.00  0.00    +0.000 N 
ATOM     42  H   UNL     1      28.260   6.946  50.088  0.00  0.00    +0.000 HD
BRANCH  41  43
ATOM     43  C   UNL     1      28.571   7.304  48.135  0.00  0.00    +0.000 C 
ATOM     44  C   UNL     1      28.012   7.949  46.868  0.00  0.00    +0.000 C 
ENDBRANCH  41  43
BRANCH  41  45
ATOM     45  C   UNL     1      27.440   8.764  49.712  0.00  0.00    +0.000 C 
ATOM     46  C   UNL     1      25.954   9.112  49.743  0.00  0.00    +0.000 C 
ENDBRANCH  41  45
ENDBRANCH  40  41
ENDBRANCH  39  40
ENDBRANCH   8  39
TORSDOF 11
ENDMDL
MODEL 9
REMARK VINA RESULT:    -8.011      1.953      3.538
REMARK INTER + INTRA:         -14.410
REMARK INTER:                 -13.003
REMARK INTRA:                  -1.407
REMARK UNBOUND:                -1.248
REMARK  Name = 
REMARK  15 active torsions:
REMARK  status: ('A' for Active; 'I' for Inactive)
REMARK    1  A    between atoms: C_1  and  C_2
REMARK    2  A    between atoms: C_3  and  C_4
REMARK    3  A    between atoms: N_6  and  C_7
REMARK    4  A    between atoms: C_9  and  N_10
REMARK    5  A    between atoms: C_15  and  C_16
REMARK    6  A    between atoms: N_18  and  S_19
REMARK    7  A    between atoms: S_19  and  C_22
REMARK    8  A    between atoms: C_22  and  C_23
REMARK    9  A    between atoms: N_35  and  C_36
REMARK   10  A    between atoms: C_36  and  C_37
REMARK   11  A    between atoms: C_37  and  N_38
REMARK   12  A    between atoms: N_38  and  C_39
REMARK   13  A    between atoms: N_38  and  C_41
REMARK   14  A    between atoms: C_39  and  C_40
REMARK   15  A    between atoms: C_41  and  C_42
REMARK                            x       y       z     vdW  Elec       q    Type
REMARK                         _______ _______ _______ _____ _____    ______ ____
ROOT
ATOM      1  C   UNL     1      15.800   0.690  50.910  0.00  0.00    +0.000 A 
ATOM      2  C   UNL     1      17.187   0.397  50.799  0.00  0.00    +0.000 A 
ATOM      3  C   UNL     1      18.210   1.294  51.144  0.00  0.00    +0.000 A 
ATOM      4  C   UNL     1      17.825   2.541  51.633  0.00  0.00    +0.000 A 
ATOM      5  C   UNL     1      16.478   2.922  51.651  0.00  0.00    +0.000 A 
ATOM      6  C   UNL     1      15.840   4.144  51.913  0.00  0.00    +0.000 A 
ATOM      7  N   UNL     1      14.521   4.048  51.801  0.00  0.00    +0.000 NA
ATOM      8  N   UNL     1      14.311   2.725  51.596  0.00  0.00    +0.000 N 
ATOM      9  C   UNL     1      15.469   2.006  51.336  0.00  0.00    +0.000 A 
ENDROOT
BRANCH   3  10
ATOM     10  N   UNL     1      19.564   0.919  51.014  0.00  0.00    +0.000 N 
ATOM     11  C   UNL     1      20.469   0.513  51.998  0.00  0.00    +0.000 A 
ATOM     12  N   UNL     1      20.034   0.004  53.165  0.00  0.00    +0.000 NA
ATOM     13  C   UNL     1      20.927  -0.258  54.125  0.00  0.00    +0.000 A 
ATOM     14  C   UNL     1      22.264  -0.044  53.971  0.00  0.00    +0.000 A 
ATOM     15  C   UNL     1      22.640   0.470  52.747  0.00  0.00    +0.000 A 
ATOM     16  N   UNL     1      21.767   0.728  51.748  0.00  0.00    +0.000 NA
ATOM     17  H   UNL     1      19.922   0.946  50.098  0.00  0.00    +0.000 HD
BRANCH  15  18
ATOM     18  C   UNL     1      24.022   0.871  52.505  0.00  0.00    +0.000 A 
ATOM     19  C   UNL     1      25.077   0.419  53.277  0.00  0.00    +0.000 A 
ATOM     20  N   UNL     1      26.214   1.034  52.827  0.00  0.00    +0.000 N 
ATOM     21  C   UNL     1      25.945   1.892  51.784  0.00  0.00    +0.000 A 
ATOM     22  C   UNL     1      26.767   2.736  51.013  0.00  0.00    +0.000 A 
ATOM     23  C   UNL     1      26.175   3.489  50.003  0.00  0.00    +0.000 A 
ATOM     24  C   UNL     1      24.810   3.408  49.750  0.00  0.00    +0.000 A 
ATOM     25  C   UNL     1      23.998   2.569  50.518  0.00  0.00    +0.000 A 
ATOM     26  C   UNL     1      24.563   1.798  51.557  0.00  0.00    +0.000 A 
BRANCH  20  27
ATOM     27  S   UNL     1      27.734   0.852  53.581  0.00  0.00    +0.000 S 
ATOM     28  O   UNL     1      28.607   1.797  52.905  0.00  0.00    +0.000 OA
ATOM     29  O   UNL     1      27.457   0.977  55.002  0.00  0.00    +0.000 OA
BRANCH  27  30
ATOM     30  C   UNL     1      28.316  -0.793  53.240  0.00  0.00    +0.000 C 
ATOM     31  C   UNL     1      29.792  -0.930  53.566  0.00  0.00    +0.000 C 
ENDBRANCH  27  30
ENDBRANCH  20  27
ENDBRANCH  15  18
ENDBRANCH   3  10
BRANCH   1  34
ATOM     32  C   UNL     1      14.250  -1.212  51.448  0.00  0.00    +0.000 C 
ATOM     33  O   UNL     1      14.538  -1.419  52.617  0.00  0.00    +0.000 OA
ATOM     34  N   UNL     1      14.801  -0.268  50.597  0.00  0.00    +0.000 N 
ATOM     35  H   UNL     1      14.461  -0.260  49.673  0.00  0.00    +0.000 HD
BRANCH  32  38
ATOM     36  C   UNL     1      12.366  -3.170  48.685  0.00  0.00    +0.000 C 
ATOM     37  C   UNL     1      13.374  -2.421  49.491  0.00  0.00    +0.000 C 
ATOM     38  C   UNL     1      13.202  -2.042  50.769  0.00  0.00    +0.000 C 
ENDBRANCH  32  38
ENDBRANCH   1  34
BRANCH   8  39
ATOM     39  C   UNL     1      12.922   2.308  51.605  0.00  0.00    +0.000 C 
BRANCH  39  40
ATOM     40  C   UNL     1      11.982   3.112  50.684  0.00  0.00    +0.000 C 
BRANCH  40  41
ATOM     41  N   UNL     1      11.775   2.623  49.309  0.00  0.00    +0.000 N 
ATOM     42  H   UNL     1      10.794   2.836  49.129  0.00  0.00    +0.000 HD
BRANCH  41  43
ATOM     43  C   UNL     1      12.543   3.343  48.278  0.00  0.00    +0.000 C 
ATOM     44  C   UNL     1      13.077   4.721  48.665  0.00  0.00    +0.000 C 
ENDBRANCH  41  43
BRANCH  41  45
ATOM     45  C   UNL     1      11.948   1.167  49.176  0.00  0.00    +0.000 C 
ATOM     46  C   UNL     1      12.439   0.727  47.799  0.00  0.00    +0.000 C 
ENDBRANCH  41  45
ENDBRANCH  40  41
ENDBRANCH  39  40
ENDBRANCH   8  39
TORSDOF 11
ENDMDL
