
     RDKit          3D

 66 69  0  0  0  0  0  0  0  0999 V2000
   -5.2961   -2.3976   -1.8333 C   0  0  0  0  0  0  0  0  0  0  0  0
   -3.7934   -2.1602   -1.8975 C   0  0  0  0  0  0  0  0  0  0  0  0
   -3.2543   -2.1985   -0.5796 O   0  0  0  0  0  0  0  0  0  0  0  0
   -1.8964   -2.3904   -0.2985 C   0  0  0  0  0  0  0  0  0  0  0  0
   -1.1602   -3.4026   -0.9327 C   0  0  0  0  0  0  0  0  0  0  0  0
    0.1911   -3.5873   -0.6332 C   0  0  0  0  0  0  0  0  0  0  0  0
    0.8866   -4.5735   -1.2561 N   0  0  0  0  0  0  0  0  0  0  0  0
    2.1995   -4.7985   -1.0009 C   0  0  0  0  0  0  0  0  0  0  0  0
    2.8823   -4.0058   -0.0739 C   0  0  0  0  0  0  0  0  0  0  0  0
    4.2804   -4.2491    0.1715 C   0  0  0  0  0  0  0  0  0  0  0  0
    5.4051   -4.4414    0.3704 N   0  0  0  0  0  0  0  0  0  0  0  0
    2.2004   -2.9669    0.5862 C   0  0  0  0  0  0  0  0  0  0  0  0
    2.9037   -2.1402    1.5261 N   0  0  0  0  0  0  0  0  0  0  0  0
    3.3674   -0.8127    1.2137 C   0  0  0  0  0  0  0  0  0  0  0  0
    4.2042   -0.1479    2.1189 C   0  0  0  0  0  0  0  0  0  0  0  0
    4.6884    1.1306    1.8325 C   0  0  0  0  0  0  0  0  0  0  0  0
    4.3288    1.7792    0.6402 C   0  0  0  0  0  0  0  0  0  0  0  0
    4.8788    3.1549    0.3503 C   0  0  0  0  0  0  0  0  0  0  0  0
    5.9168    3.0873   -0.6768 N   0  0  0  0  0  0  0  0  0  0  0  0
    7.0679    2.3972   -0.6215 C   0  0  0  0  0  0  0  0  0  0  0  0
    7.7693    2.6537   -1.7789 C   0  0  0  0  0  0  0  0  0  0  0  0
    7.0673    3.5066   -2.5556 N   0  0  0  0  0  0  0  0  0  0  0  0
    5.9435    3.7529   -1.8497 C   0  0  0  0  0  0  0  0  0  0  0  0
    3.4874    1.1147   -0.2777 C   0  0  0  0  0  0  0  0  0  0  0  0
    3.0052    1.8565   -1.8011 Cl  0  0  0  0  0  0  0  0  0  0  0  0
    3.0186   -0.1722    0.0092 C   0  0  0  0  0  0  0  0  0  0  0  0
    0.8302   -2.7564    0.3151 C   0  0  0  0  0  0  0  0  0  0  0  0
    0.0843   -1.7562    0.9643 C   0  0  0  0  0  0  0  0  0  0  0  0
   -1.2744   -1.5669    0.6551 C   0  0  0  0  0  0  0  0  0  0  0  0
   -2.0475   -0.5438    1.3063 N   0  0  0  0  0  0  0  0  0  0  0  0
   -1.6439    0.8349    1.3513 C   0  0  0  0  0  0  0  0  0  0  0  0
   -0.4213    1.1358    1.3860 O   0  0  0  0  0  0  0  0  0  0  0  0
   -2.6404    1.9234    1.3758 C   0  0  0  0  0  0  0  0  0  0  0  0
   -3.8969    1.7623    0.9481 C   0  0  0  0  0  0  0  0  0  0  0  0
   -4.8702    2.9161    0.9808 C   0  0  0  0  0  0  0  0  0  0  0  0
   -6.2125    2.5929    0.4466 N   0  0  0  0  0  0  0  0  0  0  0  0
   -6.9092    1.5652    1.2371 C   0  0  0  0  0  0  0  0  0  0  0  0
   -6.1855    2.2426   -0.9839 C   0  0  0  0  0  0  0  0  0  0  0  0
   -5.7280   -2.3402   -2.8548 H   0  0  0  0  0  0  0  0  0  0  0  0
   -5.4969   -3.4105   -1.4173 H   0  0  0  0  0  0  0  0  0  0  0  0
   -5.7784   -1.6324   -1.1894 H   0  0  0  0  0  0  0  0  0  0  0  0
   -3.6036   -1.1550   -2.3386 H   0  0  0  0  0  0  0  0  0  0  0  0
   -3.3402   -2.9359   -2.5505 H   0  0  0  0  0  0  0  0  0  0  0  0
   -1.6397   -4.0671   -1.6399 H   0  0  0  0  0  0  0  0  0  0  0  0
    2.7108   -5.6004   -1.5205 H   0  0  0  0  0  0  0  0  0  0  0  0
    3.2437   -2.5990    2.4020 H   0  0  0  0  0  0  0  0  0  0  0  0
    4.4983   -0.6268    3.0458 H   0  0  0  0  0  0  0  0  0  0  0  0
    5.3455    1.6155    2.5436 H   0  0  0  0  0  0  0  0  0  0  0  0
    5.3087    3.6123    1.2674 H   0  0  0  0  0  0  0  0  0  0  0  0
    4.0540    3.8216    0.0228 H   0  0  0  0  0  0  0  0  0  0  0  0
    7.3761    1.7602    0.1973 H   0  0  0  0  0  0  0  0  0  0  0  0
    8.7395    2.2506   -2.0396 H   0  0  0  0  0  0  0  0  0  0  0  0
    5.1605    4.4186   -2.1909 H   0  0  0  0  0  0  0  0  0  0  0  0
    2.3790   -0.6649   -0.7131 H   0  0  0  0  0  0  0  0  0  0  0  0
    0.5463   -1.1384    1.7243 H   0  0  0  0  0  0  0  0  0  0  0  0
   -3.0284   -0.7837    1.5740 H   0  0  0  0  0  0  0  0  0  0  0  0
   -2.3115    2.9076    1.6925 H   0  0  0  0  0  0  0  0  0  0  0  0
   -4.2225    0.8041    0.5670 H   0  0  0  0  0  0  0  0  0  0  0  0
   -4.4465    3.7671    0.4028 H   0  0  0  0  0  0  0  0  0  0  0  0
   -4.9718    3.2718    2.0296 H   0  0  0  0  0  0  0  0  0  0  0  0
   -6.8882    1.8258    2.3201 H   0  0  0  0  0  0  0  0  0  0  0  0
   -6.4599    0.5564    1.0987 H   0  0  0  0  0  0  0  0  0  0  0  0
   -7.9788    1.5194    0.9319 H   0  0  0  0  0  0  0  0  0  0  0  0
   -5.6663    3.0358   -1.5651 H   0  0  0  0  0  0  0  0  0  0  0  0
   -7.2267    2.1797   -1.3697 H   0  0  0  0  0  0  0  0  0  0  0  0
   -5.6801    1.2690   -1.1652 H   0  0  0  0  0  0  0  0  0  0  0  0
  1  2  1  0
  2  3  1  0
  3  4  1  0
  4  5  2  0
  5  6  1  0
  6  7  2  0
  7  8  1  0
  8  9  2  0
  9 10  1  0
 10 11  3  0
  9 12  1  0
 12 13  1  0
 13 14  1  0
 14 15  2  0
 15 16  1  0
 16 17  2  0
 17 18  1  0
 18 19  1  0
 19 20  1  0
 20 21  2  0
 21 22  1  0
 22 23  2  0
 17 24  1  0
 24 25  1  0
 24 26  2  0
 12 27  2  0
 27 28  1  0
 28 29  2  0
 29 30  1  0
 30 31  1  0
 31 32  2  0
 31 33  1  0
 33 34  2  0
 34 35  1  0
 35 36  1  0
 36 37  1  0
 36 38  1  0
 29  4  1  0
 27  6  1  0
 26 14  1  0
 23 19  1  0
  1 39  1  0
  1 40  1  0
  1 41  1  0
  2 42  1  0
  2 43  1  0
  5 44  1  0
  8 45  1  0
 13 46  1  0
 15 47  1  0
 16 48  1  0
 18 49  1  0
 18 50  1  0
 20 51  1  0
 21 52  1  0
 23 53  1  0
 26 54  1  0
 28 55  1  0
 30 56  1  0
 33 57  1  0
 34 58  1  0
 35 59  1  0
 35 60  1  0
 37 61  1  0
 37 62  1  0
 37 63  1  0
 38 64  1  0
 38 65  1  0
 38 66  1  0
M  END
