REMARK  Name = 
REMARK  7 active torsions:
REMARK  status: ('A' for Active; 'I' for Inactive)
REMARK    1  A    between atoms: C_1  and  N_2
REMARK    2  A    between atoms: N_5  and  C_6
REMARK    3  A    between atoms: C_9  and  N_10
REMARK    4  A    between atoms: C_16  and  C_17
REMARK    5  A    between atoms: C_17  and  N_18
REMARK    6  A    between atoms: N_18  and  C_19
REMARK    7  A    between atoms: N_25  and  C_26
REMARK                            x       y       z     vdW  Elec       q    Type
REMARK                         _______ _______ _______ _____ _____    ______ ____
ROOT
ATOM      1  N   UNL     1      -6.945   0.381   2.763  0.00  0.00    +0.000 N 
ATOM      2  C   UNL     1      -8.089   0.894   2.157  0.00  0.00    +0.000 A 
ATOM      3  N   UNL     1      -8.435   0.422   0.939  0.00  0.00    +0.000 NA
ATOM      4  C   UNL     1      -9.500   0.933   0.300  0.00  0.00    +0.000 A 
ATOM      5  C   UNL     1     -10.241   1.929   0.911  0.00  0.00    +0.000 A 
ATOM      6  C   UNL     1     -11.371   2.695   0.571  0.00  0.00    +0.000 A 
ATOM      7  C   UNL     1     -11.622   3.574   1.609  0.00  0.00    +0.000 A 
ATOM      8  N   UNL     1     -10.679   3.329   2.600  0.00  0.00    +0.000 N 
ATOM      9  C   UNL     1      -9.813   2.343   2.160  0.00  0.00    +0.000 A 
ATOM     10  N   UNL     1      -8.741   1.867   2.820  0.00  0.00    +0.000 NA
ATOM     11  H   UNL     1      -6.562   0.928   3.486  0.00  0.00    +0.000 HD
ENDROOT
BRANCH   1  15
ATOM     12  C   UNL     1      -4.868  -3.161   1.680  0.00  0.00    +0.000 A 
ATOM     13  C   UNL     1      -4.195  -2.027   2.163  0.00  0.00    +0.000 A 
ATOM     14  C   UNL     1      -4.880  -0.871   2.563  0.00  0.00    +0.000 A 
ATOM     15  C   UNL     1      -6.269  -0.811   2.477  0.00  0.00    +0.000 A 
ATOM     16  C   UNL     1      -6.943  -1.940   1.999  0.00  0.00    +0.000 A 
ATOM     17  C   UNL     1      -6.258  -3.103   1.624  0.00  0.00    +0.000 A 
BRANCH  12  22
ATOM     18  C   UNL     1      -1.503  -7.506   0.634  0.00  0.00    +0.000 C 
ATOM     19  N   UNL     1      -2.592  -6.562   0.391  0.00  0.00    +0.000 N 
ATOM     20  C   UNL     1      -3.621  -6.672   1.455  0.00  0.00    +0.000 C 
ATOM     21  C   UNL     1      -4.750  -5.619   1.321  0.00  0.00    +0.000 C 
ATOM     22  N   UNL     1      -4.136  -4.282   1.322  0.00  0.00    +0.000 N 
ATOM     23  C   UNL     1      -3.181  -4.113   0.211  0.00  0.00    +0.000 C 
ATOM     24  C   UNL     1      -2.067  -5.175   0.349  0.00  0.00    +0.000 C 
ATOM     25  H   UNL     1      -3.019  -6.787  -0.507  0.00  0.00    +0.000 HD
ENDBRANCH  12  22
ENDBRANCH   1  15
BRANCH   8  26
ATOM     26  C   UNL     1     -10.593   4.005   3.882  0.00  0.00    +0.000 C 
ATOM     27  C   UNL     1      -9.265   4.712   4.163  0.00  0.00    +0.000 C 
ATOM     28  C   UNL     1      -9.243   4.918   5.677  0.00  0.00    +0.000 C 
ATOM     29  C   UNL     1     -10.327   4.010   6.259  0.00  0.00    +0.000 C 
ATOM     30  C   UNL     1     -10.793   3.119   5.113  0.00  0.00    +0.000 C 
ENDBRANCH   8  26
BRANCH   7  31
ATOM     31  C   UNL     1     -12.703   4.608   1.661  0.00  0.00    +0.000 C 
BRANCH  31  32
ATOM     32  N   UNL     1     -13.939   4.080   2.213  0.00  0.00    +0.000 N 
ATOM     33  H   UNL     1     -13.993   3.142   2.507  0.00  0.00    +0.000 HD
BRANCH  32  34
ATOM     34  C   UNL     1     -15.050   4.922   2.320  0.00  0.00    +0.000 A 
ATOM     35  C   UNL     1     -15.315   5.962   1.420  0.00  0.00    +0.000 A 
ATOM     36  C   UNL     1     -16.480   6.731   1.518  0.00  0.00    +0.000 A 
ATOM     37  C   UNL     1     -17.413   6.460   2.514  0.00  0.00    +0.000 A 
ATOM     38  C   UNL     1     -17.186   5.412   3.399  0.00  0.00    +0.000 A 
ATOM     39  C   UNL     1     -16.023   4.642   3.290  0.00  0.00    +0.000 A 
ENDBRANCH  32  34
ENDBRANCH  31  32
ENDBRANCH   7  31
TORSDOF 6
