MODEL 1
REMARK VINA RESULT:    -8.417      0.000      0.000
REMARK INTER + INTRA:         -11.280
REMARK INTER:                 -10.877
REMARK INTRA:                  -0.403
REMARK UNBOUND:                -0.403
REMARK  Name = 
REMARK  6 active torsions:
REMARK  status: ('A' for Active; 'I' for Inactive)
REMARK    1  A    between atoms: C_2  and  C_3
REMARK    2  A    between atoms: C_8  and  O_9
REMARK    3  A    between atoms: O_9  and  C_10
REMARK    4  A    between atoms: N_13  and  C_14
REMARK    5  A    between atoms: C_17  and  N_18
REMARK    6  A    between atoms: N_21  and  C_22
REMARK                            x       y       z     vdW  Elec       q    Type
REMARK                         _______ _______ _______ _____ _____    ______ ____
ROOT
ATOM      1  C   UNL     1      21.993   0.823  52.042  0.00  0.00    +0.000 A 
ATOM      2  N   UNL     1      22.253   1.568  50.947  0.00  0.00    +0.000 NA
ATOM      3  C   UNL     1      23.490   2.067  50.836  0.00  0.00    +0.000 A 
ATOM      4  N   UNL     1      23.770   2.770  49.674  0.00  0.00    +0.000 N 
ATOM      5  N   UNL     1      24.458   1.860  51.744  0.00  0.00    +0.000 NA
ATOM      6  C   UNL     1      24.178   1.033  52.772  0.00  0.00    +0.000 A 
ATOM      7  C   UNL     1      22.950   0.459  52.966  0.00  0.00    +0.000 A 
ATOM      8 CL   UNL     1      22.668  -0.605  54.279  0.00  0.00    +0.000 Cl
ATOM      9  H   UNL     1      23.169   2.583  48.918  0.00  0.00    +0.000 HD
ENDROOT
BRANCH   4  10
ATOM     10  C   UNL     1      24.774   3.703  49.418  0.00  0.00    +0.000 A 
ATOM     11  C   UNL     1      24.429   5.015  49.105  0.00  0.00    +0.000 A 
ATOM     12  C   UNL     1      25.417   5.958  48.805  0.00  0.00    +0.000 A 
ATOM     13  C   UNL     1      26.782   5.637  48.826  0.00  0.00    +0.000 A 
ATOM     14  C   UNL     1      27.112   4.313  49.133  0.00  0.00    +0.000 A 
ATOM     15  C   UNL     1      26.126   3.356  49.401  0.00  0.00    +0.000 A 
BRANCH  13  16
ATOM     16  N   UNL     1      27.731   6.613  48.612  0.00  0.00    +0.000 N 
ATOM     17  C   UNL     1      29.016   6.338  47.957  0.00  0.00    +0.000 C 
ATOM     18  C   UNL     1      30.114   7.209  48.617  0.00  0.00    +0.000 C 
ATOM     19  N   UNL     1      29.791   8.657  48.610  0.00  0.00    +0.000 N 
ATOM     20  C   UNL     1      30.826   9.417  49.305  0.00  0.00    +0.000 C 
ATOM     21  C   UNL     1      28.475   8.866  49.257  0.00  0.00    +0.000 C 
ATOM     22  C   UNL     1      27.354   8.036  48.592  0.00  0.00    +0.000 C 
ATOM     23  H   UNL     1      29.751   8.987  47.646  0.00  0.00    +0.000 HD
ENDBRANCH  13  16
ENDBRANCH   4  10
BRANCH   1  24
ATOM     24  O   UNL     1      20.689   0.423  52.266  0.00  0.00    +0.000 OA
BRANCH  24  30
ATOM     25  C   UNL     1      15.862   2.353  52.042  0.00  0.00    +0.000 C 
ATOM     26  O   UNL     1      15.083   1.445  52.304  0.00  0.00    +0.000 OA
ATOM     27  N   UNL     1      17.019   2.181  51.294  0.00  0.00    +0.000 N 
ATOM     28  C   UNL     1      17.296   0.859  50.732  0.00  0.00    +0.000 C 
ATOM     29  C   UNL     1      18.451   0.193  51.468  0.00  0.00    +0.000 C 
ATOM     30  C   UNL     1      19.698   1.090  51.463  0.00  0.00    +0.000 C 
ATOM     31  C   UNL     1      19.337   2.478  52.026  0.00  0.00    +0.000 C 
ATOM     32  C   UNL     1      18.160   3.092  51.275  0.00  0.00    +0.000 C 
BRANCH  25  34
ATOM     33  C   UNL     1      14.497   3.998  53.254  0.00  0.00    +0.000 C 
ATOM     34  C   UNL     1      15.578   3.739  52.504  0.00  0.00    +0.000 C 
ENDBRANCH  25  34
ENDBRANCH  24  30
ENDBRANCH   1  24
TORSDOF 5
ENDMDL
MODEL 2
REMARK VINA RESULT:    -8.388      3.807     11.762
REMARK INTER + INTRA:         -11.243
REMARK INTER:                 -10.680
REMARK INTRA:                  -0.563
REMARK UNBOUND:                -0.403
REMARK  Name = 
REMARK  6 active torsions:
REMARK  status: ('A' for Active; 'I' for Inactive)
REMARK    1  A    between atoms: C_2  and  C_3
REMARK    2  A    between atoms: C_8  and  O_9
REMARK    3  A    between atoms: O_9  and  C_10
REMARK    4  A    between atoms: N_13  and  C_14
REMARK    5  A    between atoms: C_17  and  N_18
REMARK    6  A    between atoms: N_21  and  C_22
REMARK                            x       y       z     vdW  Elec       q    Type
REMARK                         _______ _______ _______ _____ _____    ______ ____
ROOT
ATOM      1  C   UNL     1      23.937   1.400  52.984  0.00  0.00    +0.000 A 
ATOM      2  N   UNL     1      22.605   1.602  53.057  0.00  0.00    +0.000 NA
ATOM      3  C   UNL     1      21.838   0.519  53.226  0.00  0.00    +0.000 A 
ATOM      4  N   UNL     1      20.478   0.742  53.372  0.00  0.00    +0.000 N 
ATOM      5  N   UNL     1      22.327  -0.728  53.326  0.00  0.00    +0.000 NA
ATOM      6  C   UNL     1      23.668  -0.869  53.343  0.00  0.00    +0.000 A 
ATOM      7  C   UNL     1      24.540   0.178  53.193  0.00  0.00    +0.000 A 
ATOM      8 CL   UNL     1      26.234  -0.067  53.250  0.00  0.00    +0.000 Cl
ATOM      9  H   UNL     1      20.231   1.654  53.648  0.00  0.00    +0.000 HD
ENDROOT
BRANCH   4  10
ATOM     10  C   UNL     1      19.407  -0.131  53.186  0.00  0.00    +0.000 A 
ATOM     11  C   UNL     1      19.325  -1.291  53.952  0.00  0.00    +0.000 A 
ATOM     12  C   UNL     1      18.282  -2.201  53.755  0.00  0.00    +0.000 A 
ATOM     13  C   UNL     1      17.272  -1.981  52.806  0.00  0.00    +0.000 A 
ATOM     14  C   UNL     1      17.373  -0.817  52.039  0.00  0.00    +0.000 A 
ATOM     15  C   UNL     1      18.434   0.082  52.209  0.00  0.00    +0.000 A 
BRANCH  13  16
ATOM     16  N   UNL     1      16.212  -2.856  52.701  0.00  0.00    +0.000 N 
ATOM     17  C   UNL     1      15.099  -2.642  51.767  0.00  0.00    +0.000 C 
ATOM     18  C   UNL     1      13.786  -3.133  52.426  0.00  0.00    +0.000 C 
ATOM     19  N   UNL     1      13.856  -4.540  52.888  0.00  0.00    +0.000 N 
ATOM     20  C   UNL     1      12.618  -4.922  53.562  0.00  0.00    +0.000 C 
ATOM     21  C   UNL     1      15.011  -4.697  53.803  0.00  0.00    +0.000 C 
ATOM     22  C   UNL     1      16.340  -4.250  53.154  0.00  0.00    +0.000 C 
ATOM     23  H   UNL     1      13.978  -5.153  52.081  0.00  0.00    +0.000 HD
ENDBRANCH  13  16
ENDBRANCH   4  10
BRANCH   1  24
ATOM     24  O   UNL     1      24.744   2.474  52.656  0.00  0.00    +0.000 OA
BRANCH  24  30
ATOM     25  C   UNL     1      26.614   5.626  48.962  0.00  0.00    +0.000 C 
ATOM     26  O   UNL     1      26.099   6.727  49.114  0.00  0.00    +0.000 OA
ATOM     27  N   UNL     1      25.938   4.429  49.155  0.00  0.00    +0.000 N 
ATOM     28  C   UNL     1      24.516   4.477  49.495  0.00  0.00    +0.000 C 
ATOM     29  C   UNL     1      24.297   4.083  50.950  0.00  0.00    +0.000 C 
ATOM     30  C   UNL     1      24.910   2.705  51.245  0.00  0.00    +0.000 C 
ATOM     31  C   UNL     1      26.394   2.701  50.829  0.00  0.00    +0.000 C 
ATOM     32  C   UNL     1      26.564   3.128  49.375  0.00  0.00    +0.000 C 
BRANCH  25  34
ATOM     33  C   UNL     1      28.617   6.529  47.862  0.00  0.00    +0.000 C 
ATOM     34  C   UNL     1      28.030   5.518  48.520  0.00  0.00    +0.000 C 
ENDBRANCH  25  34
ENDBRANCH  24  30
ENDBRANCH   1  24
TORSDOF 5
ENDMDL
MODEL 3
REMARK VINA RESULT:    -8.277      3.900     11.601
REMARK INTER + INTRA:         -11.100
REMARK INTER:                 -10.480
REMARK INTRA:                  -0.620
REMARK UNBOUND:                -0.403
REMARK  Name = 
REMARK  6 active torsions:
REMARK  status: ('A' for Active; 'I' for Inactive)
REMARK    1  A    between atoms: C_2  and  C_3
REMARK    2  A    between atoms: C_8  and  O_9
REMARK    3  A    between atoms: O_9  and  C_10
REMARK    4  A    between atoms: N_13  and  C_14
REMARK    5  A    between atoms: C_17  and  N_18
REMARK    6  A    between atoms: N_21  and  C_22
REMARK                            x       y       z     vdW  Elec       q    Type
REMARK                         _______ _______ _______ _____ _____    ______ ____
ROOT
ATOM      1  C   UNL     1      23.613   5.433  51.049  0.00  0.00    +0.000 A 
ATOM      2  N   UNL     1      23.552   4.090  51.171  0.00  0.00    +0.000 NA
ATOM      3  C   UNL     1      22.331   3.544  51.230  0.00  0.00    +0.000 A 
ATOM      4  N   UNL     1      22.276   2.160  51.281  0.00  0.00    +0.000 N 
ATOM      5  N   UNL     1      21.195   4.259  51.172  0.00  0.00    +0.000 NA
ATOM      6  C   UNL     1      21.307   5.585  50.956  0.00  0.00    +0.000 A 
ATOM      7  C   UNL     1      22.509   6.237  50.864  0.00  0.00    +0.000 A 
ATOM      8 CL   UNL     1      22.580   7.921  50.562  0.00  0.00    +0.000 Cl
ATOM      9  H   UNL     1      23.084   1.697  50.963  0.00  0.00    +0.000 HD
ENDROOT
BRANCH   4  10
ATOM     10  C   UNL     1      21.248   1.325  51.718  0.00  0.00    +0.000 A 
ATOM     11  C   UNL     1      20.193   1.029  50.860  0.00  0.00    +0.000 A 
ATOM     12  C   UNL     1      19.131   0.226  51.289  0.00  0.00    +0.000 A 
ATOM     13  C   UNL     1      19.091  -0.327  52.577  0.00  0.00    +0.000 A 
ATOM     14  C   UNL     1      20.153  -0.013  53.430  0.00  0.00    +0.000 A 
ATOM     15  C   UNL     1      21.203   0.817  53.017  0.00  0.00    +0.000 A 
BRANCH  13  16
ATOM     16  N   UNL     1      18.073  -1.185  52.936  0.00  0.00    +0.000 N 
ATOM     17  C   UNL     1      18.260  -2.274  53.903  0.00  0.00    +0.000 C 
ATOM     18  C   UNL     1      17.409  -3.491  53.462  0.00  0.00    +0.000 C 
ATOM     19  N   UNL     1      15.975  -3.161  53.273  0.00  0.00    +0.000 N 
ATOM     20  C   UNL     1      15.239  -4.327  52.791  0.00  0.00    +0.000 C 
ATOM     21  C   UNL     1      15.855  -2.041  52.310  0.00  0.00    +0.000 C 
ATOM     22  C   UNL     1      16.665  -0.800  52.748  0.00  0.00    +0.000 C 
ATOM     23  H   UNL     1      15.574  -2.883  54.169  0.00  0.00    +0.000 HD
ENDBRANCH  13  16
ENDBRANCH   4  10
BRANCH   1  24
ATOM     24  O   UNL     1      24.851   6.041  51.141  0.00  0.00    +0.000 OA
BRANCH  24  30
ATOM     25  C   UNL     1      29.155   7.568  48.648  0.00  0.00    +0.000 C 
ATOM     26  O   UNL     1      29.556   8.593  49.186  0.00  0.00    +0.000 OA
ATOM     27  N   UNL     1      27.812   7.276  48.456  0.00  0.00    +0.000 N 
ATOM     28  C   UNL     1      26.817   8.271  48.857  0.00  0.00    +0.000 C 
ATOM     29  C   UNL     1      26.069   7.812  50.102  0.00  0.00    +0.000 C 
ATOM     30  C   UNL     1      25.439   6.427  49.886  0.00  0.00    +0.000 C 
ATOM     31  C   UNL     1      26.522   5.433  49.425  0.00  0.00    +0.000 C 
ATOM     32  C   UNL     1      27.261   5.949  48.194  0.00  0.00    +0.000 C 
BRANCH  25  34
ATOM     33  C   UNL     1      31.117   6.112  48.911  0.00  0.00    +0.000 C 
ATOM     34  C   UNL     1      30.126   6.567  48.130  0.00  0.00    +0.000 C 
ENDBRANCH  25  34
ENDBRANCH  24  30
ENDBRANCH   1  24
TORSDOF 5
ENDMDL
MODEL 4
REMARK VINA RESULT:    -8.190      5.540      7.647
REMARK INTER + INTRA:         -10.987
REMARK INTER:                 -10.574
REMARK INTRA:                  -0.413
REMARK UNBOUND:                -0.403
REMARK  Name = 
REMARK  6 active torsions:
REMARK  status: ('A' for Active; 'I' for Inactive)
REMARK    1  A    between atoms: C_2  and  C_3
REMARK    2  A    between atoms: C_8  and  O_9
REMARK    3  A    between atoms: O_9  and  C_10
REMARK    4  A    between atoms: N_13  and  C_14
REMARK    5  A    between atoms: C_17  and  N_18
REMARK    6  A    between atoms: N_21  and  C_22
REMARK                            x       y       z     vdW  Elec       q    Type
REMARK                         _______ _______ _______ _____ _____    ______ ____
ROOT
ATOM      1  C   UNL     1      17.213  -0.681  52.283  0.00  0.00    +0.000 A 
ATOM      2  N   UNL     1      18.193  -0.602  53.208  0.00  0.00    +0.000 NA
ATOM      3  C   UNL     1      19.378  -0.139  52.794  0.00  0.00    +0.000 A 
ATOM      4  N   UNL     1      20.357   0.008  53.765  0.00  0.00    +0.000 N 
ATOM      5  N   UNL     1      19.626   0.242  51.530  0.00  0.00    +0.000 NA
ATOM      6  C   UNL     1      18.591   0.233  50.665  0.00  0.00    +0.000 A 
ATOM      7  C   UNL     1      17.335  -0.206  50.994  0.00  0.00    +0.000 A 
ATOM      8 CL   UNL     1      16.058  -0.166  49.855  0.00  0.00    +0.000 Cl
ATOM      9  H   UNL     1      20.023   0.063  54.690  0.00  0.00    +0.000 HD
ENDROOT
BRANCH   4  10
ATOM     10  C   UNL     1      21.742   0.088  53.629  0.00  0.00    +0.000 A 
ATOM     11  C   UNL     1      22.543  -0.926  54.146  0.00  0.00    +0.000 A 
ATOM     12  C   UNL     1      23.936  -0.848  54.056  0.00  0.00    +0.000 A 
ATOM     13  C   UNL     1      24.581   0.229  53.431  0.00  0.00    +0.000 A 
ATOM     14  C   UNL     1      23.764   1.244  52.925  0.00  0.00    +0.000 A 
ATOM     15  C   UNL     1      22.370   1.187  53.041  0.00  0.00    +0.000 A 
BRANCH  13  16
ATOM     16  N   UNL     1      25.952   0.229  53.283  0.00  0.00    +0.000 N 
ATOM     17  C   UNL     1      26.636  -0.549  52.242  0.00  0.00    +0.000 C 
ATOM     18  C   UNL     1      27.976  -1.081  52.810  0.00  0.00    +0.000 C 
ATOM     19  N   UNL     1      28.843  -0.010  53.356  0.00  0.00    +0.000 N 
ATOM     20  C   UNL     1      30.056  -0.578  53.938  0.00  0.00    +0.000 C 
ATOM     21  C   UNL     1      28.090   0.755  54.378  0.00  0.00    +0.000 C 
ATOM     22  C   UNL     1      26.766   1.329  53.825  0.00  0.00    +0.000 C 
ATOM     23  H   UNL     1      29.120   0.617  52.600  0.00  0.00    +0.000 HD
ENDBRANCH  13  16
ENDBRANCH   4  10
BRANCH   1  24
ATOM     24  O   UNL     1      16.028  -1.298  52.638  0.00  0.00    +0.000 OA
BRANCH  24  30
ATOM     25  C   UNL     1      14.810  -5.995  54.518  0.00  0.00    +0.000 C 
ATOM     26  O   UNL     1      15.456  -6.166  55.545  0.00  0.00    +0.000 OA
ATOM     27  N   UNL     1      15.310  -5.350  53.395  0.00  0.00    +0.000 N 
ATOM     28  C   UNL     1      16.704  -4.905  53.408  0.00  0.00    +0.000 C 
ATOM     29  C   UNL     1      16.782  -3.387  53.513  0.00  0.00    +0.000 C 
ATOM     30  C   UNL     1      15.977  -2.714  52.390  0.00  0.00    +0.000 C 
ATOM     31  C   UNL     1      14.533  -3.251  52.399  0.00  0.00    +0.000 C 
ATOM     32  C   UNL     1      14.506  -4.774  52.320  0.00  0.00    +0.000 C 
BRANCH  25  34
ATOM     33  C   UNL     1      12.476  -6.113  55.277  0.00  0.00    +0.000 C 
ATOM     34  C   UNL     1      13.421  -6.515  54.414  0.00  0.00    +0.000 C 
ENDBRANCH  25  34
ENDBRANCH  24  30
ENDBRANCH   1  24
TORSDOF 5
ENDMDL
MODEL 5
REMARK VINA RESULT:    -7.946      1.614      1.887
REMARK INTER + INTRA:         -10.672
REMARK INTER:                 -10.233
REMARK INTRA:                  -0.439
REMARK UNBOUND:                -0.403
REMARK  Name = 
REMARK  6 active torsions:
REMARK  status: ('A' for Active; 'I' for Inactive)
REMARK    1  A    between atoms: C_2  and  C_3
REMARK    2  A    between atoms: C_8  and  O_9
REMARK    3  A    between atoms: O_9  and  C_10
REMARK    4  A    between atoms: N_13  and  C_14
REMARK    5  A    between atoms: C_17  and  N_18
REMARK    6  A    between atoms: N_21  and  C_22
REMARK                            x       y       z     vdW  Elec       q    Type
REMARK                         _______ _______ _______ _____ _____    ______ ____
ROOT
ATOM      1  C   UNL     1      22.587   1.850  52.215  0.00  0.00    +0.000 A 
ATOM      2  N   UNL     1      22.763   2.776  51.250  0.00  0.00    +0.000 NA
ATOM      3  C   UNL     1      24.018   2.985  50.834  0.00  0.00    +0.000 A 
ATOM      4  N   UNL     1      24.182   3.885  49.792  0.00  0.00    +0.000 N 
ATOM      5  N   UNL     1      25.081   2.326  51.324  0.00  0.00    +0.000 NA
ATOM      6  C   UNL     1      24.845   1.346  52.219  0.00  0.00    +0.000 A 
ATOM      7  C   UNL     1      23.596   1.042  52.696  0.00  0.00    +0.000 A 
ATOM      8 CL   UNL     1      23.362  -0.234  53.812  0.00  0.00    +0.000 Cl
ATOM      9  H   UNL     1      23.376   4.049  49.252  0.00  0.00    +0.000 HD
ENDROOT
BRANCH   4  10
ATOM     10  C   UNL     1      25.316   4.592  49.396  0.00  0.00    +0.000 A 
ATOM     11  C   UNL     1      25.231   5.966  49.188  0.00  0.00    +0.000 A 
ATOM     12  C   UNL     1      26.345   6.690  48.753  0.00  0.00    +0.000 A 
ATOM     13  C   UNL     1      27.588   6.078  48.529  0.00  0.00    +0.000 A 
ATOM     14  C   UNL     1      27.655   4.697  48.733  0.00  0.00    +0.000 A 
ATOM     15  C   UNL     1      26.534   3.962  49.137  0.00  0.00    +0.000 A 
BRANCH  13  16
ATOM     16  N   UNL     1      28.686   6.837  48.185  0.00  0.00    +0.000 N 
ATOM     17  C   UNL     1      30.048   6.501  48.620  0.00  0.00    +0.000 C 
ATOM     18  C   UNL     1      30.825   7.812  48.900  0.00  0.00    +0.000 C 
ATOM     19  N   UNL     1      30.829   8.744  47.747  0.00  0.00    +0.000 N 
ATOM     20  C   UNL     1      31.514   9.986  48.094  0.00  0.00    +0.000 C 
ATOM     21  C   UNL     1      29.431   9.022  47.339  0.00  0.00    +0.000 C 
ATOM     22  C   UNL     1      28.646   7.731  47.017  0.00  0.00    +0.000 C 
ATOM     23  H   UNL     1      31.330   8.315  46.969  0.00  0.00    +0.000 HD
ENDBRANCH  13  16
ENDBRANCH   4  10
BRANCH   1  24
ATOM     24  O   UNL     1      21.330   1.720  52.775  0.00  0.00    +0.000 OA
BRANCH  24  30
ATOM     25  C   UNL     1      16.462  -0.001  52.128  0.00  0.00    +0.000 C 
ATOM     26  O   UNL     1      16.019  -0.294  53.231  0.00  0.00    +0.000 OA
ATOM     27  N   UNL     1      17.776  -0.231  51.742  0.00  0.00    +0.000 N 
ATOM     28  C   UNL     1      18.668  -0.918  52.676  0.00  0.00    +0.000 C 
ATOM     29  C   UNL     1      19.692   0.051  53.253  0.00  0.00    +0.000 C 
ATOM     30  C   UNL     1      20.471   0.760  52.134  0.00  0.00    +0.000 C 
ATOM     31  C   UNL     1      19.481   1.428  51.161  0.00  0.00    +0.000 C 
ATOM     32  C   UNL     1      18.461   0.426  50.632  0.00  0.00    +0.000 C 
BRANCH  25  34
ATOM     33  C   UNL     1      14.888  -0.164  50.248  0.00  0.00    +0.000 C 
ATOM     34  C   UNL     1      15.573   0.609  51.103  0.00  0.00    +0.000 C 
ENDBRANCH  25  34
ENDBRANCH  24  30
ENDBRANCH   1  24
TORSDOF 5
ENDMDL
MODEL 6
REMARK VINA RESULT:    -7.558      4.851      7.115
REMARK INTER + INTRA:         -10.171
REMARK INTER:                  -9.724
REMARK INTRA:                  -0.447
REMARK UNBOUND:                -0.403
REMARK  Name = 
REMARK  6 active torsions:
REMARK  status: ('A' for Active; 'I' for Inactive)
REMARK    1  A    between atoms: C_2  and  C_3
REMARK    2  A    between atoms: C_8  and  O_9
REMARK    3  A    between atoms: O_9  and  C_10
REMARK    4  A    between atoms: N_13  and  C_14
REMARK    5  A    between atoms: C_17  and  N_18
REMARK    6  A    between atoms: N_21  and  C_22
REMARK                            x       y       z     vdW  Elec       q    Type
REMARK                         _______ _______ _______ _____ _____    ______ ____
ROOT
ATOM      1  C   UNL     1      16.763   0.859  51.328  0.00  0.00    +0.000 A 
ATOM      2  N   UNL     1      17.767   0.065  51.754  0.00  0.00    +0.000 NA
ATOM      3  C   UNL     1      18.936   0.660  52.022  0.00  0.00    +0.000 A 
ATOM      4  N   UNL     1      19.940  -0.151  52.528  0.00  0.00    +0.000 N 
ATOM      5  N   UNL     1      19.143   1.981  51.890  0.00  0.00    +0.000 NA
ATOM      6  C   UNL     1      18.085   2.744  51.552  0.00  0.00    +0.000 A 
ATOM      7  C   UNL     1      16.843   2.235  51.274  0.00  0.00    +0.000 A 
ATOM      8 CL   UNL     1      15.534   3.264  50.876  0.00  0.00    +0.000 Cl
ATOM      9  H   UNL     1      19.632  -0.994  52.932  0.00  0.00    +0.000 HD
ENDROOT
BRANCH   4  10
ATOM     10  C   UNL     1      21.320   0.048  52.548  0.00  0.00    +0.000 A 
ATOM     11  C   UNL     1      22.086  -0.559  53.539  0.00  0.00    +0.000 A 
ATOM     12  C   UNL     1      23.467  -0.343  53.603  0.00  0.00    +0.000 A 
ATOM     13  C   UNL     1      24.136   0.466  52.673  0.00  0.00    +0.000 A 
ATOM     14  C   UNL     1      23.351   1.075  51.689  0.00  0.00    +0.000 A 
ATOM     15  C   UNL     1      21.964   0.889  51.640  0.00  0.00    +0.000 A 
BRANCH  13  16
ATOM     16  N   UNL     1      25.509   0.585  52.714  0.00  0.00    +0.000 N 
ATOM     17  C   UNL     1      26.410  -0.540  52.436  0.00  0.00    +0.000 C 
ATOM     18  C   UNL     1      27.649  -0.433  53.360  0.00  0.00    +0.000 C 
ATOM     19  N   UNL     1      28.346   0.871  53.250  0.00  0.00    +0.000 N 
ATOM     20  C   UNL     1      29.460   0.939  54.192  0.00  0.00    +0.000 C 
ATOM     21  C   UNL     1      27.381   1.964  53.513  0.00  0.00    +0.000 C 
ATOM     22  C   UNL     1      26.153   1.902  52.578  0.00  0.00    +0.000 C 
ATOM     23  H   UNL     1      28.724   0.972  52.308  0.00  0.00    +0.000 HD
ENDBRANCH  13  16
ENDBRANCH   4  10
BRANCH   1  24
ATOM     24  O   UNL     1      15.595   0.260  50.895  0.00  0.00    +0.000 OA
BRANCH  24  30
ATOM     25  C   UNL     1      13.516  -3.086  47.496  0.00  0.00    +0.000 C 
ATOM     26  O   UNL     1      12.463  -3.495  47.969  0.00  0.00    +0.000 OA
ATOM     27  N   UNL     1      14.655  -2.844  48.251  0.00  0.00    +0.000 N 
ATOM     28  C   UNL     1      14.622  -3.152  49.681  0.00  0.00    +0.000 C 
ATOM     29  C   UNL     1      14.592  -1.871  50.507  0.00  0.00    +0.000 C 
ATOM     30  C   UNL     1      15.771  -0.955  50.145  0.00  0.00    +0.000 C 
ATOM     31  C   UNL     1      15.779  -0.700  48.625  0.00  0.00    +0.000 C 
ATOM     32  C   UNL     1      15.782  -2.009  47.843  0.00  0.00    +0.000 C 
BRANCH  25  34
ATOM     33  C   UNL     1      13.822  -3.878  45.190  0.00  0.00    +0.000 C 
ATOM     34  C   UNL     1      13.636  -2.851  46.032  0.00  0.00    +0.000 C 
ENDBRANCH  25  34
ENDBRANCH  24  30
ENDBRANCH   1  24
TORSDOF 5
ENDMDL
MODEL 7
REMARK VINA RESULT:    -7.198      1.811      2.147
REMARK INTER + INTRA:          -9.705
REMARK INTER:                  -9.067
REMARK INTRA:                  -0.638
REMARK UNBOUND:                -0.403
REMARK  Name = 
REMARK  6 active torsions:
REMARK  status: ('A' for Active; 'I' for Inactive)
REMARK    1  A    between atoms: C_2  and  C_3
REMARK    2  A    between atoms: C_8  and  O_9
REMARK    3  A    between atoms: O_9  and  C_10
REMARK    4  A    between atoms: N_13  and  C_14
REMARK    5  A    between atoms: C_17  and  N_18
REMARK    6  A    between atoms: N_21  and  C_22
REMARK                            x       y       z     vdW  Elec       q    Type
REMARK                         _______ _______ _______ _____ _____    ______ ____
ROOT
ATOM      1  C   UNL     1      21.799   1.584  52.309  0.00  0.00    +0.000 A 
ATOM      2  N   UNL     1      21.676   2.747  51.637  0.00  0.00    +0.000 NA
ATOM      3  C   UNL     1      22.789   3.248  51.088  0.00  0.00    +0.000 A 
ATOM      4  N   UNL     1      22.641   4.405  50.338  0.00  0.00    +0.000 N 
ATOM      5  N   UNL     1      23.991   2.654  51.174  0.00  0.00    +0.000 NA
ATOM      6  C   UNL     1      24.045   1.448  51.775  0.00  0.00    +0.000 A 
ATOM      7  C   UNL     1      22.961   0.842  52.353  0.00  0.00    +0.000 A 
ATOM      8 CL   UNL     1      23.093  -0.704  53.077  0.00  0.00    +0.000 Cl
ATOM      9  H   UNL     1      21.728   4.580  50.017  0.00  0.00    +0.000 HD
ENDROOT
BRANCH   4  10
ATOM     10  C   UNL     1      23.592   5.356  49.972  0.00  0.00    +0.000 A 
ATOM     11  C   UNL     1      24.055   6.265  50.920  0.00  0.00    +0.000 A 
ATOM     12  C   UNL     1      24.979   7.253  50.566  0.00  0.00    +0.000 A 
ATOM     13  C   UNL     1      25.491   7.360  49.265  0.00  0.00    +0.000 A 
ATOM     14  C   UNL     1      25.010   6.447  48.322  0.00  0.00    +0.000 A 
ATOM     15  C   UNL     1      24.060   5.476  48.663  0.00  0.00    +0.000 A 
BRANCH  13  16
ATOM     16  N   UNL     1      26.466   8.291  48.975  0.00  0.00    +0.000 N 
ATOM     17  C   UNL     1      26.566   8.950  47.666  0.00  0.00    +0.000 C 
ATOM     18  C   UNL     1      28.062   9.158  47.320  0.00  0.00    +0.000 C 
ATOM     19  N   UNL     1      28.805   9.898  48.368  0.00  0.00    +0.000 N 
ATOM     20  C   UNL     1      30.219  10.001  48.019  0.00  0.00    +0.000 C 
ATOM     21  C   UNL     1      28.643   9.200  49.666  0.00  0.00    +0.000 C 
ATOM     22  C   UNL     1      27.159   9.014  50.053  0.00  0.00    +0.000 C 
ATOM     23  H   UNL     1      28.429  10.843  48.443  0.00  0.00    +0.000 HD
ENDBRANCH  13  16
ENDBRANCH   4  10
BRANCH   1  24
ATOM     24  O   UNL     1      20.706   1.120  53.017  0.00  0.00    +0.000 OA
BRANCH  24  30
ATOM     25  C   UNL     1      15.731   0.009  51.972  0.00  0.00    +0.000 C 
ATOM     26  O   UNL     1      15.186  -0.297  53.026  0.00  0.00    +0.000 OA
ATOM     27  N   UNL     1      17.033  -0.346  51.650  0.00  0.00    +0.000 N 
ATOM     28  C   UNL     1      17.780  -1.186  52.586  0.00  0.00    +0.000 C 
ATOM     29  C   UNL     1      18.866  -0.377  53.286  0.00  0.00    +0.000 C 
ATOM     30  C   UNL     1      19.790   0.305  52.265  0.00  0.00    +0.000 C 
ATOM     31  C   UNL     1      18.946   1.139  51.282  0.00  0.00    +0.000 C 
ATOM     32  C   UNL     1      17.858   0.294  50.628  0.00  0.00    +0.000 C 
BRANCH  25  34
ATOM     33  C   UNL     1      14.577   2.032  51.188  0.00  0.00    +0.000 C 
ATOM     34  C   UNL     1      14.983   0.778  50.941  0.00  0.00    +0.000 C 
ENDBRANCH  25  34
ENDBRANCH  24  30
ENDBRANCH   1  24
TORSDOF 5
ENDMDL
MODEL 8
REMARK VINA RESULT:    -7.082      3.430     11.224
REMARK INTER + INTRA:          -9.555
REMARK INTER:                  -8.918
REMARK INTRA:                  -0.637
REMARK UNBOUND:                -0.403
REMARK  Name = 
REMARK  6 active torsions:
REMARK  status: ('A' for Active; 'I' for Inactive)
REMARK    1  A    between atoms: C_2  and  C_3
REMARK    2  A    between atoms: C_8  and  O_9
REMARK    3  A    between atoms: O_9  and  C_10
REMARK    4  A    between atoms: N_13  and  C_14
REMARK    5  A    between atoms: C_17  and  N_18
REMARK    6  A    between atoms: N_21  and  C_22
REMARK                            x       y       z     vdW  Elec       q    Type
REMARK                         _______ _______ _______ _____ _____    ______ ____
ROOT
ATOM      1  C   UNL     1      23.883   3.799  51.810  0.00  0.00    +0.000 A 
ATOM      2  N   UNL     1      22.577   3.851  52.144  0.00  0.00    +0.000 NA
ATOM      3  C   UNL     1      21.867   2.727  51.987  0.00  0.00    +0.000 A 
ATOM      4  N   UNL     1      20.545   2.769  52.400  0.00  0.00    +0.000 N 
ATOM      5  N   UNL     1      22.390   1.579  51.525  0.00  0.00    +0.000 NA
ATOM      6  C   UNL     1      23.718   1.550  51.294  0.00  0.00    +0.000 A 
ATOM      7  C   UNL     1      24.534   2.641  51.440  0.00  0.00    +0.000 A 
ATOM      8 CL   UNL     1      26.219   2.529  51.155  0.00  0.00    +0.000 Cl
ATOM      9  H   UNL     1      20.330   3.485  53.041  0.00  0.00    +0.000 HD
ENDROOT
BRANCH   4  10
ATOM     10  C   UNL     1      19.474   1.950  52.044  0.00  0.00    +0.000 A 
ATOM     11  C   UNL     1      19.474   0.613  52.432  0.00  0.00    +0.000 A 
ATOM     12  C   UNL     1      18.430  -0.237  52.053  0.00  0.00    +0.000 A 
ATOM     13  C   UNL     1      17.341   0.215  51.294  0.00  0.00    +0.000 A 
ATOM     14  C   UNL     1      17.360   1.558  50.905  0.00  0.00    +0.000 A 
ATOM     15  C   UNL     1      18.419   2.406  51.253  0.00  0.00    +0.000 A 
BRANCH  13  16
ATOM     16  N   UNL     1      16.288  -0.629  51.014  0.00  0.00    +0.000 N 
ATOM     17  C   UNL     1      15.844  -0.913  49.643  0.00  0.00    +0.000 C 
ATOM     18  C   UNL     1      14.302  -1.061  49.634  0.00  0.00    +0.000 C 
ATOM     19  N   UNL     1      13.808  -2.077  50.595  0.00  0.00    +0.000 N 
ATOM     20  C   UNL     1      12.349  -2.122  50.591  0.00  0.00    +0.000 C 
ATOM     21  C   UNL     1      14.311  -1.752  51.951  0.00  0.00    +0.000 C 
ATOM     22  C   UNL     1      15.851  -1.636  51.994  0.00  0.00    +0.000 C 
ATOM     23  H   UNL     1      14.152  -2.997  50.318  0.00  0.00    +0.000 HD
ENDBRANCH  13  16
ENDBRANCH   4  10
BRANCH   1  24
ATOM     24  O   UNL     1      24.606   4.977  51.813  0.00  0.00    +0.000 OA
BRANCH  24  30
ATOM     25  C   UNL     1      26.334   9.078  49.115  0.00  0.00    +0.000 C 
ATOM     26  O   UNL     1      26.264  10.061  49.842  0.00  0.00    +0.000 OA
ATOM     27  N   UNL     1      25.384   8.065  49.099  0.00  0.00    +0.000 N 
ATOM     28  C   UNL     1      24.201   8.205  49.947  0.00  0.00    +0.000 C 
ATOM     29  C   UNL     1      24.265   7.237  51.123  0.00  0.00    +0.000 C 
ATOM     30  C   UNL     1      24.454   5.791  50.636  0.00  0.00    +0.000 C 
ATOM     31  C   UNL     1      25.686   5.714  49.716  0.00  0.00    +0.000 C 
ATOM     32  C   UNL     1      25.589   6.718  48.572  0.00  0.00    +0.000 C 
BRANCH  25  34
ATOM     33  C   UNL     1      28.700   8.660  48.603  0.00  0.00    +0.000 C 
ATOM     34  C   UNL     1      27.465   8.934  48.159  0.00  0.00    +0.000 C 
ENDBRANCH  25  34
ENDBRANCH  24  30
ENDBRANCH   1  24
TORSDOF 5
ENDMDL
MODEL 9
REMARK VINA RESULT:    -6.869      3.424      4.309
REMARK INTER + INTRA:          -9.280
REMARK INTER:                  -8.457
REMARK INTRA:                  -0.822
REMARK UNBOUND:                -0.403
REMARK  Name = 
REMARK  6 active torsions:
REMARK  status: ('A' for Active; 'I' for Inactive)
REMARK    1  A    between atoms: C_2  and  C_3
REMARK    2  A    between atoms: C_8  and  O_9
REMARK    3  A    between atoms: O_9  and  C_10
REMARK    4  A    between atoms: N_13  and  C_14
REMARK    5  A    between atoms: C_17  and  N_18
REMARK    6  A    between atoms: N_21  and  C_22
REMARK                            x       y       z     vdW  Elec       q    Type
REMARK                         _______ _______ _______ _____ _____    ______ ____
ROOT
ATOM      1  C   UNL     1      19.598  -0.123  53.177  0.00  0.00    +0.000 A 
ATOM      2  N   UNL     1      19.509   0.875  52.273  0.00  0.00    +0.000 NA
ATOM      3  C   UNL     1      20.658   1.443  51.886  0.00  0.00    +0.000 A 
ATOM      4  N   UNL     1      20.565   2.417  50.904  0.00  0.00    +0.000 N 
ATOM      5  N   UNL     1      21.863   1.068  52.346  0.00  0.00    +0.000 NA
ATOM      6  C   UNL     1      21.908   0.005  53.175  0.00  0.00    +0.000 A 
ATOM      7  C   UNL     1      20.791  -0.655  53.617  0.00  0.00    +0.000 A 
ATOM      8 CL   UNL     1      20.920  -2.016  54.649  0.00  0.00    +0.000 Cl
ATOM      9  H   UNL     1      19.741   2.391  50.366  0.00  0.00    +0.000 HD
ENDROOT
BRANCH   4  10
ATOM     10  C   UNL     1      21.462   3.429  50.566  0.00  0.00    +0.000 A 
ATOM     11  C   UNL     1      21.271   4.713  51.070  0.00  0.00    +0.000 A 
ATOM     12  C   UNL     1      22.134   5.753  50.713  0.00  0.00    +0.000 A 
ATOM     13  C   UNL     1      23.229   5.551  49.861  0.00  0.00    +0.000 A 
ATOM     14  C   UNL     1      23.403   4.259  49.355  0.00  0.00    +0.000 A 
ATOM     15  C   UNL     1      22.522   3.221  49.683  0.00  0.00    +0.000 A 
BRANCH  13  16
ATOM     16  N   UNL     1      24.111   6.579  49.601  0.00  0.00    +0.000 N 
ATOM     17  C   UNL     1      25.125   6.504  48.542  0.00  0.00    +0.000 C 
ATOM     18  C   UNL     1      26.407   7.230  49.021  0.00  0.00    +0.000 C 
ATOM     19  N   UNL     1      26.159   8.628  49.449  0.00  0.00    +0.000 N 
ATOM     20  C   UNL     1      27.388   9.236  49.953  0.00  0.00    +0.000 C 
ATOM     21  C   UNL     1      25.110   8.639  50.495  0.00  0.00    +0.000 C 
ATOM     22  C   UNL     1      23.806   7.954  50.028  0.00  0.00    +0.000 C 
ATOM     23  H   UNL     1      25.844   9.174  48.647  0.00  0.00    +0.000 HD
ENDBRANCH  13  16
ENDBRANCH   4  10
BRANCH   1  24
ATOM     24  O   UNL     1      18.427  -0.625  53.713  0.00  0.00    +0.000 OA
BRANCH  24  30
ATOM     25  C   UNL     1      14.408  -3.904  53.303  0.00  0.00    +0.000 C 
ATOM     26  O   UNL     1      14.479  -4.702  54.231  0.00  0.00    +0.000 OA
ATOM     27  N   UNL     1      15.514  -3.422  52.618  0.00  0.00    +0.000 N 
ATOM     28  C   UNL     1      16.836  -3.939  52.975  0.00  0.00    +0.000 C 
ATOM     29  C   UNL     1      17.646  -2.880  53.714  0.00  0.00    +0.000 C 
ATOM     30  C   UNL     1      17.740  -1.585  52.892  0.00  0.00    +0.000 C 
ATOM     31  C   UNL     1      16.324  -1.113  52.510  0.00  0.00    +0.000 C 
ATOM     32  C   UNL     1      15.544  -2.214  51.798  0.00  0.00    +0.000 C 
BRANCH  25  34
ATOM     33  C   UNL     1      12.264  -2.760  53.664  0.00  0.00    +0.000 C 
ATOM     34  C   UNL     1      13.081  -3.422  52.833  0.00  0.00    +0.000 C 
ENDBRANCH  25  34
ENDBRANCH  24  30
ENDBRANCH   1  24
TORSDOF 5
ENDMDL
