
     RDKit          3D

 85 90  0  0  0  0  0  0  0  0999 V2000
   -6.0985    5.1538    2.0653 C   0  0  0  0  0  0  0  0  0  0  0  0
   -5.1523    4.0925    1.5034 C   0  0  0  0  0  0  0  0  0  0  0  0
   -5.1363    4.0680   -0.0072 C   0  0  0  0  0  0  0  0  0  0  0  0
   -5.6598    5.0257   -0.6454 O   0  0  0  0  0  0  0  0  0  0  0  0
   -4.5263    2.9824   -0.7415 N   0  0  0  0  0  0  0  0  0  0  0  0
   -4.7569    2.9034   -2.1947 C   0  0  0  0  0  0  0  0  0  0  0  0
   -3.9602    1.7588   -2.8475 C   0  0  0  0  0  0  0  0  0  0  0  0
   -4.1610    0.4232   -2.1136 C   0  0  0  0  0  0  0  0  0  0  0  0
   -4.1926    0.5685   -0.5701 C   0  0  1  0  0  0  0  0  0  0  0  0
   -3.4839   -0.5485    0.0877 N   0  0  0  0  0  0  0  0  0  0  0  0
   -4.2410   -1.6048    0.7719 C   0  0  0  0  0  0  0  0  0  0  0  0
   -3.8876   -2.9667    0.2178 C   0  0  0  0  0  0  0  0  0  0  0  0
   -4.9099   -4.0282    0.3384 C   0  0  0  0  0  0  0  0  0  0  0  0
   -5.8939   -4.1359   -0.6565 C   0  0  0  0  0  0  0  0  0  0  0  0
   -6.8807   -5.1205   -0.5720 C   0  0  0  0  0  0  0  0  0  0  0  0
   -6.8989   -5.9963    0.5159 C   0  0  0  0  0  0  0  0  0  0  0  0
   -5.9297   -5.8963    1.5173 C   0  0  0  0  0  0  0  0  0  0  0  0
   -5.9629   -6.7604    2.5627 F   0  0  0  0  0  0  0  0  0  0  0  0
   -4.9313   -4.9135    1.4369 C   0  0  0  0  0  0  0  0  0  0  0  0
   -3.7079   -4.8247    2.7012 Cl  0  0  0  0  0  0  0  0  0  0  0  0
   -2.6351   -3.2176   -0.2403 C   0  0  0  0  0  0  0  0  0  0  0  0
   -2.2091   -4.5972   -0.6951 C   0  0  0  0  0  0  0  0  0  0  0  0
   -1.6354   -2.1126   -0.2561 C   0  0  0  0  0  0  0  0  0  0  0  0
   -0.2571   -2.3277   -0.4143 C   0  0  0  0  0  0  0  0  0  0  0  0
    0.6037   -1.2781   -0.3789 N   0  0  0  0  0  0  0  0  0  0  0  0
    0.1587   -0.0053   -0.2133 C   0  0  0  0  0  0  0  0  0  0  0  0
    1.0768    1.0929   -0.0950 N   0  0  0  0  0  0  0  0  0  0  0  0
    2.5067    0.9418   -0.0670 C   0  0  0  0  0  0  0  0  0  0  0  0
    3.1718    0.1245   -0.9951 C   0  0  0  0  0  0  0  0  0  0  0  0
    4.5619   -0.0016   -0.9533 C   0  0  0  0  0  0  0  0  0  0  0  0
    5.3071    0.6962    0.0091 C   0  0  0  0  0  0  0  0  0  0  0  0
    6.7377    0.5836    0.0230 N   0  0  0  0  0  0  0  0  0  0  0  0
    7.5490    1.5199   -0.7565 C   0  0  0  0  0  0  0  0  0  0  0  0
    8.8771    1.7741   -0.0351 C   0  0  0  0  0  0  0  0  0  0  0  0
    9.5421    0.4934    0.2793 N   0  0  0  0  0  0  0  0  0  0  0  0
   10.8409    0.7503    0.9174 C   0  0  0  0  0  0  0  0  0  0  0  0
    8.6977   -0.3224    1.1751 C   0  0  0  0  0  0  0  0  0  0  0  0
    7.3630   -0.6499    0.4991 C   0  0  0  0  0  0  0  0  0  0  0  0
    4.6517    1.5249    0.9394 C   0  0  0  0  0  0  0  0  0  0  0  0
    5.4414    2.2795    1.9737 C   0  0  0  0  0  0  0  0  0  0  0  0
    3.2524    1.6550    0.8808 C   0  0  0  0  0  0  0  0  0  0  0  0
   -1.1737    0.2239   -0.0782 N   0  0  0  0  0  0  0  0  0  0  0  0
   -2.0764   -0.7916   -0.1032 C   0  0  0  0  0  0  0  0  0  0  0  0
   -3.6951    1.9484   -0.1021 C   0  0  0  0  0  0  0  0  0  0  0  0
   -7.1295    4.9639    1.6998 H   0  0  0  0  0  0  0  0  0  0  0  0
   -6.0961    5.0978    3.1733 H   0  0  0  0  0  0  0  0  0  0  0  0
   -5.7734    6.1673    1.7531 H   0  0  0  0  0  0  0  0  0  0  0  0
   -5.4925    3.1052    1.8808 H   0  0  0  0  0  0  0  0  0  0  0  0
   -4.1231    4.2827    1.8764 H   0  0  0  0  0  0  0  0  0  0  0  0
   -4.4522    3.8588   -2.6753 H   0  0  0  0  0  0  0  0  0  0  0  0
   -5.8402    2.7482   -2.3813 H   0  0  0  0  0  0  0  0  0  0  0  0
   -4.2706    1.6482   -3.9128 H   0  0  0  0  0  0  0  0  0  0  0  0
   -2.8788    2.0173   -2.8462 H   0  0  0  0  0  0  0  0  0  0  0  0
   -3.3531   -0.2696   -2.4340 H   0  0  0  0  0  0  0  0  0  0  0  0
   -5.1219   -0.0273   -2.4471 H   0  0  0  0  0  0  0  0  0  0  0  0
   -5.2688    0.5394   -0.2747 H   0  0  0  0  0  0  0  0  0  0  0  0
   -3.9804   -1.5896    1.8497 H   0  0  0  0  0  0  0  0  0  0  0  0
   -5.3368   -1.4365    0.6895 H   0  0  0  0  0  0  0  0  0  0  0  0
   -5.8909   -3.4616   -1.5046 H   0  0  0  0  0  0  0  0  0  0  0  0
   -7.6409   -5.1975   -1.3412 H   0  0  0  0  0  0  0  0  0  0  0  0
   -7.6625   -6.7610    0.5793 H   0  0  0  0  0  0  0  0  0  0  0  0
   -1.6423   -4.5147   -1.6524 H   0  0  0  0  0  0  0  0  0  0  0  0
   -3.0697   -5.2816   -0.8814 H   0  0  0  0  0  0  0  0  0  0  0  0
   -1.5545   -5.0562    0.0846 H   0  0  0  0  0  0  0  0  0  0  0  0
    0.1434   -3.3263   -0.5309 H   0  0  0  0  0  0  0  0  0  0  0  0
    0.6803    2.0156    0.1951 H   0  0  0  0  0  0  0  0  0  0  0  0
    2.6223   -0.3916   -1.7697 H   0  0  0  0  0  0  0  0  0  0  0  0
    5.0611   -0.6339   -1.6771 H   0  0  0  0  0  0  0  0  0  0  0  0
    7.0068    2.4838   -0.8863 H   0  0  0  0  0  0  0  0  0  0  0  0
    7.7442    1.0843   -1.7639 H   0  0  0  0  0  0  0  0  0  0  0  0
    9.5231    2.3798   -0.7085 H   0  0  0  0  0  0  0  0  0  0  0  0
    8.6837    2.3625    0.8925 H   0  0  0  0  0  0  0  0  0  0  0  0
   11.3598   -0.2107    1.1335 H   0  0  0  0  0  0  0  0  0  0  0  0
   10.7163    1.3186    1.8685 H   0  0  0  0  0  0  0  0  0  0  0  0
   11.4964    1.3298    0.2306 H   0  0  0  0  0  0  0  0  0  0  0  0
    9.2108   -1.2802    1.4159 H   0  0  0  0  0  0  0  0  0  0  0  0
    8.4993    0.2134    2.1327 H   0  0  0  0  0  0  0  0  0  0  0  0
    6.6974   -1.1598    1.2283 H   0  0  0  0  0  0  0  0  0  0  0  0
    7.5331   -1.3328   -0.3634 H   0  0  0  0  0  0  0  0  0  0  0  0
    6.1226    1.5850    2.5127 H   0  0  0  0  0  0  0  0  0  0  0  0
    4.7802    2.7581    2.7246 H   0  0  0  0  0  0  0  0  0  0  0  0
    6.0483    3.0681    1.4795 H   0  0  0  0  0  0  0  0  0  0  0  0
    2.7402    2.3014    1.5819 H   0  0  0  0  0  0  0  0  0  0  0  0
   -2.6470    2.1255   -0.4082 H   0  0  0  0  0  0  0  0  0  0  0  0
   -3.7304    1.9920    1.0095 H   0  0  0  0  0  0  0  0  0  0  0  0
  1  2  1  0
  2  3  1  0
  3  4  2  0
  3  5  1  0
  5  6  1  0
  6  7  1  0
  7  8  1  0
  8  9  1  0
  9 10  1  0
 10 11  1  0
 11 12  1  0
 12 13  1  0
 13 14  2  0
 14 15  1  0
 15 16  2  0
 16 17  1  0
 17 18  1  0
 17 19  2  0
 19 20  1  0
 12 21  2  0
 21 22  1  0
 21 23  1  0
 23 24  2  0
 24 25  1  0
 25 26  2  0
 26 27  1  0
 27 28  1  0
 28 29  2  0
 29 30  1  0
 30 31  2  0
 31 32  1  0
 32 33  1  0
 33 34  1  0
 34 35  1  0
 35 36  1  0
 35 37  1  0
 37 38  1  0
 31 39  1  0
 39 40  1  0
 39 41  2  0
 26 42  1  0
 42 43  2  0
  9 44  1  0
 44  5  1  0
 43 10  1  0
 19 13  1  0
 43 23  1  0
 41 28  1  0
 38 32  1  0
  1 45  1  0
  1 46  1  0
  1 47  1  0
  2 48  1  0
  2 49  1  0
  6 50  1  0
  6 51  1  0
  7 52  1  0
  7 53  1  0
  8 54  1  0
  8 55  1  0
  9 56  1  1
 11 57  1  0
 11 58  1  0
 14 59  1  0
 15 60  1  0
 16 61  1  0
 22 62  1  0
 22 63  1  0
 22 64  1  0
 24 65  1  0
 27 66  1  0
 29 67  1  0
 30 68  1  0
 33 69  1  0
 33 70  1  0
 34 71  1  0
 34 72  1  0
 36 73  1  0
 36 74  1  0
 36 75  1  0
 37 76  1  0
 37 77  1  0
 38 78  1  0
 38 79  1  0
 40 80  1  0
 40 81  1  0
 40 82  1  0
 41 83  1  0
 44 84  1  0
 44 85  1  0
M  END
