MODEL 1
REMARK VINA RESULT:    -8.649      0.000      0.000
REMARK INTER + INTRA:         -13.420
REMARK INTER:                 -11.683
REMARK INTRA:                  -1.737
REMARK UNBOUND:                -1.737
REMARK  Name = 
REMARK  8 active torsions:
REMARK  status: ('A' for Active; 'I' for Inactive)
REMARK    1  A    between atoms: C_1  and  O_2
REMARK    2  A    between atoms: O_2  and  C_3
REMARK    3  A    between atoms: C_6  and  N_7
REMARK    4  A    between atoms: N_7  and  C_8
REMARK    5  A    between atoms: C_21  and  O_22
REMARK    6  A    between atoms: O_22  and  C_23
REMARK    7  A    between atoms: C_23  and  C_24
REMARK    8  A    between atoms: C_27  and  C_28
REMARK                            x       y       z     vdW  Elec       q    Type
REMARK                         _______ _______ _______ _____ _____    ______ ____
ROOT
ATOM      1  C   UNL     1      21.228   1.434  50.541  0.00  0.00    +0.000 A 
ATOM      2  C   UNL     1      22.202   0.635  51.129  0.00  0.00    +0.000 A 
ATOM      3  C   UNL     1      22.113   0.319  52.498  0.00  0.00    +0.000 A 
ATOM      4  C   UNL     1      23.030  -0.474  53.202  0.00  0.00    +0.000 A 
ATOM      5  N   UNL     1      22.769  -0.896  54.455  0.00  0.00    +0.000 NA
ATOM      6  C   UNL     1      21.618  -0.490  55.014  0.00  0.00    +0.000 A 
ATOM      7  N   UNL     1      20.732   0.342  54.456  0.00  0.00    +0.000 NA
ATOM      8  C   UNL     1      20.997   0.748  53.223  0.00  0.00    +0.000 A 
ATOM      9  C   UNL     1      20.166   1.703  52.649  0.00  0.00    +0.000 A 
ATOM     10  C   UNL     1      20.393   2.190  51.366  0.00  0.00    +0.000 A 
ENDROOT
BRANCH   1  12
ATOM     11  C   UNL     1      22.232   1.768  48.457  0.00  0.00    +0.000 C 
ATOM     12  O   UNL     1      21.037   1.385  49.180  0.00  0.00    +0.000 OA
ENDBRANCH   1  12
BRANCH   4  13
ATOM     13  N   UNL     1      24.307  -0.758  52.679  0.00  0.00    +0.000 N 
ATOM     14  H   UNL     1      24.372  -1.451  51.983  0.00  0.00    +0.000 HD
BRANCH  13  15
ATOM     15  C   UNL     1      25.497  -0.120  53.080  0.00  0.00    +0.000 A 
ATOM     16  C   UNL     1      25.494   1.219  53.492  0.00  0.00    +0.000 A 
ATOM     17  C   UNL     1      26.674   1.847  53.885  0.00  0.00    +0.000 A 
ATOM     18  C   UNL     1      27.874   1.136  53.885  0.00  0.00    +0.000 A 
ATOM     19 CL   UNL     1      29.304   1.987  54.343  0.00  0.00    +0.000 Cl
ATOM     20  C   UNL     1      27.880  -0.215  53.518  0.00  0.00    +0.000 A 
ATOM     21 CL   UNL     1      29.330  -1.156  53.505  0.00  0.00    +0.000 Cl
ATOM     22  C   UNL     1      26.694  -0.845  53.134  0.00  0.00    +0.000 A 
ENDBRANCH  13  15
ENDBRANCH   4  13
BRANCH  10  23
ATOM     23  O   UNL     1      19.914   3.398  50.924  0.00  0.00    +0.000 OA
BRANCH  23  24
ATOM     24  C   UNL     1      20.874   4.411  50.516  0.00  0.00    +0.000 C 
BRANCH  24  25
ATOM     25  C   UNL     1      21.861   4.963  51.594  0.00  0.00    +0.000 C 
ATOM     26  C   UNL     1      23.302   4.400  51.588  0.00  0.00    +0.000 C 
ATOM     27  N   UNL     1      24.203   5.081  50.647  0.00  0.00    +0.000 N 
ATOM     28  C   UNL     1      25.372   4.542  50.118  0.00  0.00    +0.000 C 
ATOM     29  C   UNL     1      25.647   3.071  50.299  0.00  0.00    +0.000 C 
ATOM     30  O   UNL     1      26.207   5.231  49.527  0.00  0.00    +0.000 OA
ATOM     31  C   UNL     1      24.142   6.539  50.729  0.00  0.00    +0.000 C 
ATOM     32  C   UNL     1      22.698   7.037  50.665  0.00  0.00    +0.000 C 
ATOM     33  O   UNL     1      21.857   6.410  51.636  0.00  0.00    +0.000 OA
ENDBRANCH  24  25
ENDBRANCH  23  24
ENDBRANCH  10  23
TORSDOF 6
ENDMDL
MODEL 2
REMARK VINA RESULT:    -8.308      1.530      2.322
REMARK INTER + INTRA:         -12.960
REMARK INTER:                 -11.658
REMARK INTRA:                  -1.301
REMARK UNBOUND:                -1.737
REMARK  Name = 
REMARK  8 active torsions:
REMARK  status: ('A' for Active; 'I' for Inactive)
REMARK    1  A    between atoms: C_1  and  O_2
REMARK    2  A    between atoms: O_2  and  C_3
REMARK    3  A    between atoms: C_6  and  N_7
REMARK    4  A    between atoms: N_7  and  C_8
REMARK    5  A    between atoms: C_21  and  O_22
REMARK    6  A    between atoms: O_22  and  C_23
REMARK    7  A    between atoms: C_23  and  C_24
REMARK    8  A    between atoms: C_27  and  C_28
REMARK                            x       y       z     vdW  Elec       q    Type
REMARK                         _______ _______ _______ _____ _____    ______ ____
ROOT
ATOM      1  C   UNL     1      21.514   1.123  49.830  0.00  0.00    +0.000 A 
ATOM      2  C   UNL     1      22.512   1.079  50.798  0.00  0.00    +0.000 A 
ATOM      3  C   UNL     1      22.210   0.607  52.090  0.00  0.00    +0.000 A 
ATOM      4  C   UNL     1      23.128   0.516  53.146  0.00  0.00    +0.000 A 
ATOM      5  N   UNL     1      22.815  -0.132  54.286  0.00  0.00    +0.000 NA
ATOM      6  C   UNL     1      21.578  -0.646  54.383  0.00  0.00    +0.000 A 
ATOM      7  N   UNL     1      20.610  -0.524  53.469  0.00  0.00    +0.000 NA
ATOM      8  C   UNL     1      20.929   0.112  52.350  0.00  0.00    +0.000 A 
ATOM      9  C   UNL     1      19.924   0.363  51.424  0.00  0.00    +0.000 A 
ATOM     10  C   UNL     1      20.181   1.042  50.237  0.00  0.00    +0.000 A 
ENDROOT
BRANCH   1  12
ATOM     11  C   UNL     1      22.649   2.303  48.162  0.00  0.00    +0.000 C 
ATOM     12  O   UNL     1      21.857   1.138  48.499  0.00  0.00    +0.000 OA
ENDBRANCH   1  12
BRANCH   4  13
ATOM     13  N   UNL     1      24.359   1.198  53.109  0.00  0.00    +0.000 N 
ATOM     14  H   UNL     1      24.337   2.177  53.010  0.00  0.00    +0.000 HD
BRANCH  13  15
ATOM     15  C   UNL     1      25.622   0.579  53.207  0.00  0.00    +0.000 A 
ATOM     16  C   UNL     1      25.827  -0.719  52.726  0.00  0.00    +0.000 A 
ATOM     17  C   UNL     1      27.076  -1.329  52.828  0.00  0.00    +0.000 A 
ATOM     18  C   UNL     1      28.142  -0.637  53.401  0.00  0.00    +0.000 A 
ATOM     19 CL   UNL     1      29.650  -1.466  53.534  0.00  0.00    +0.000 Cl
ATOM     20  C   UNL     1      27.959   0.679  53.844  0.00  0.00    +0.000 A 
ATOM     21 CL   UNL     1      29.240   1.595  54.556  0.00  0.00    +0.000 Cl
ATOM     22  C   UNL     1      26.709   1.290  53.732  0.00  0.00    +0.000 A 
ENDBRANCH  13  15
ENDBRANCH   4  13
BRANCH  10  23
ATOM     23  O   UNL     1      19.210   1.694  49.519  0.00  0.00    +0.000 OA
BRANCH  23  24
ATOM     24  C   UNL     1      19.411   3.101  49.213  0.00  0.00    +0.000 C 
BRANCH  24  25
ATOM     25  C   UNL     1      19.196   4.140  50.361  0.00  0.00    +0.000 C 
ATOM     26  C   UNL     1      20.393   4.411  51.302  0.00  0.00    +0.000 C 
ATOM     27  N   UNL     1      21.338   5.414  50.791  0.00  0.00    +0.000 N 
ATOM     28  C   UNL     1      22.669   5.537  51.176  0.00  0.00    +0.000 C 
ATOM     29  C   UNL     1      23.300   4.435  51.990  0.00  0.00    +0.000 C 
ATOM     30  O   UNL     1      23.347   6.530  50.900  0.00  0.00    +0.000 OA
ATOM     31  C   UNL     1      20.692   6.628  50.298  0.00  0.00    +0.000 C 
ATOM     32  C   UNL     1      19.562   6.297  49.323  0.00  0.00    +0.000 C 
ATOM     33  O   UNL     1      18.618   5.373  49.870  0.00  0.00    +0.000 OA
ENDBRANCH  24  25
ENDBRANCH  23  24
ENDBRANCH  10  23
TORSDOF 6
ENDMDL
MODEL 3
REMARK VINA RESULT:    -8.231      3.843      6.508
REMARK INTER + INTRA:         -12.855
REMARK INTER:                 -11.955
REMARK INTRA:                  -0.900
REMARK UNBOUND:                -1.737
REMARK  Name = 
REMARK  8 active torsions:
REMARK  status: ('A' for Active; 'I' for Inactive)
REMARK    1  A    between atoms: C_1  and  O_2
REMARK    2  A    between atoms: O_2  and  C_3
REMARK    3  A    between atoms: C_6  and  N_7
REMARK    4  A    between atoms: N_7  and  C_8
REMARK    5  A    between atoms: C_21  and  O_22
REMARK    6  A    between atoms: O_22  and  C_23
REMARK    7  A    between atoms: C_23  and  C_24
REMARK    8  A    between atoms: C_27  and  C_28
REMARK                            x       y       z     vdW  Elec       q    Type
REMARK                         _______ _______ _______ _____ _____    ______ ____
ROOT
ATOM      1  C   UNL     1      20.740   0.656  50.826  0.00  0.00    +0.000 A 
ATOM      2  C   UNL     1      21.992   0.670  51.432  0.00  0.00    +0.000 A 
ATOM      3  C   UNL     1      22.148   0.132  52.725  0.00  0.00    +0.000 A 
ATOM      4  C   UNL     1      23.355   0.089  53.437  0.00  0.00    +0.000 A 
ATOM      5  N   UNL     1      23.465  -0.620  54.578  0.00  0.00    +0.000 NA
ATOM      6  C   UNL     1      22.363  -1.244  55.024  0.00  0.00    +0.000 A 
ATOM      7  N   UNL     1      21.151  -1.180  54.464  0.00  0.00    +0.000 NA
ATOM      8  C   UNL     1      21.054  -0.483  53.341  0.00  0.00    +0.000 A 
ATOM      9  C   UNL     1      19.793  -0.292  52.789  0.00  0.00    +0.000 A 
ATOM     10  C   UNL     1      19.613   0.444  51.622  0.00  0.00    +0.000 A 
ENDROOT
BRANCH   1  12
ATOM     11  C   UNL     1      21.802   1.396  48.881  0.00  0.00    +0.000 C 
ATOM     12  O   UNL     1      20.645   0.744  49.458  0.00  0.00    +0.000 OA
ENDBRANCH   1  12
BRANCH   4  13
ATOM     13  N   UNL     1      24.458   0.879  53.059  0.00  0.00    +0.000 N 
ATOM     14  H   UNL     1      24.275   1.771  52.687  0.00  0.00    +0.000 HD
BRANCH  13  15
ATOM     15  C   UNL     1      25.805   0.483  53.179  0.00  0.00    +0.000 A 
ATOM     16  C   UNL     1      26.214  -0.805  52.812  0.00  0.00    +0.000 A 
ATOM     17  C   UNL     1      27.546  -1.194  52.935  0.00  0.00    +0.000 A 
ATOM     18  C   UNL     1      28.492  -0.289  53.415  0.00  0.00    +0.000 A 
ATOM     19 CL   UNL     1      30.117  -0.849  53.582  0.00  0.00    +0.000 Cl
ATOM     20  C   UNL     1      28.103   1.016  53.742  0.00  0.00    +0.000 A 
ATOM     21 CL   UNL     1      29.226   2.188  54.334  0.00  0.00    +0.000 Cl
ATOM     22  C   UNL     1      26.768   1.405  53.608  0.00  0.00    +0.000 A 
ENDBRANCH  13  15
ENDBRANCH   4  13
BRANCH  10  23
ATOM     23  O   UNL     1      18.420   1.030  51.280  0.00  0.00    +0.000 OA
BRANCH  23  24
ATOM     24  C   UNL     1      17.400   0.201  50.657  0.00  0.00    +0.000 C 
BRANCH  24  25
ATOM     25  C   UNL     1      16.052  -0.003  51.421  0.00  0.00    +0.000 C 
ATOM     26  C   UNL     1      14.920  -0.746  50.672  0.00  0.00    +0.000 C 
ATOM     27  N   UNL     1      15.007  -2.210  50.763  0.00  0.00    +0.000 N 
ATOM     28  C   UNL     1      14.428  -3.109  49.873  0.00  0.00    +0.000 C 
ATOM     29  C   UNL     1      13.869  -2.592  48.572  0.00  0.00    +0.000 C 
ATOM     30  O   UNL     1      14.330  -4.313  50.122  0.00  0.00    +0.000 OA
ATOM     31  C   UNL     1      15.233  -2.699  52.122  0.00  0.00    +0.000 C 
ATOM     32  C   UNL     1      16.403  -1.973  52.785  0.00  0.00    +0.000 C 
ATOM     33  O   UNL     1      16.262  -0.551  52.744  0.00  0.00    +0.000 OA
ENDBRANCH  24  25
ENDBRANCH  23  24
ENDBRANCH  10  23
TORSDOF 6
ENDMDL
MODEL 4
REMARK VINA RESULT:    -8.126      2.419      4.182
REMARK INTER + INTRA:         -12.714
REMARK INTER:                 -11.027
REMARK INTRA:                  -1.687
REMARK UNBOUND:                -1.737
REMARK  Name = 
REMARK  8 active torsions:
REMARK  status: ('A' for Active; 'I' for Inactive)
REMARK    1  A    between atoms: C_1  and  O_2
REMARK    2  A    between atoms: O_2  and  C_3
REMARK    3  A    between atoms: C_6  and  N_7
REMARK    4  A    between atoms: N_7  and  C_8
REMARK    5  A    between atoms: C_21  and  O_22
REMARK    6  A    between atoms: O_22  and  C_23
REMARK    7  A    between atoms: C_23  and  C_24
REMARK    8  A    between atoms: C_27  and  C_28
REMARK                            x       y       z     vdW  Elec       q    Type
REMARK                         _______ _______ _______ _____ _____    ______ ____
ROOT
ATOM      1  C   UNL     1      21.772   1.718  52.781  0.00  0.00    +0.000 A 
ATOM      2  C   UNL     1      23.054   1.885  52.269  0.00  0.00    +0.000 A 
ATOM      3  C   UNL     1      23.458   3.150  51.799  0.00  0.00    +0.000 A 
ATOM      4  C   UNL     1      24.720   3.442  51.262  0.00  0.00    +0.000 A 
ATOM      5  N   UNL     1      25.098   4.713  51.024  0.00  0.00    +0.000 NA
ATOM      6  C   UNL     1      24.202   5.680  51.279  0.00  0.00    +0.000 A 
ATOM      7  N   UNL     1      22.947   5.488  51.699  0.00  0.00    +0.000 NA
ATOM      8  C   UNL     1      22.587   4.234  51.934  0.00  0.00    +0.000 A 
ATOM      9  C   UNL     1      21.260   3.978  52.258  0.00  0.00    +0.000 A 
ATOM     10  C   UNL     1      20.806   2.686  52.500  0.00  0.00    +0.000 A 
ENDROOT
BRANCH   1  12
ATOM     11  C   UNL     1      22.153  -0.551  53.192  0.00  0.00    +0.000 C 
ATOM     12  O   UNL     1      21.510   0.670  53.631  0.00  0.00    +0.000 OA
ENDBRANCH   1  12
BRANCH   4  13
ATOM     13  N   UNL     1      25.592   2.420  50.838  0.00  0.00    +0.000 N 
ATOM     14  H   UNL     1      25.589   2.185  49.882  0.00  0.00    +0.000 HD
BRANCH  13  15
ATOM     15  C   UNL     1      26.468   1.711  51.684  0.00  0.00    +0.000 A 
ATOM     16  C   UNL     1      27.406   2.384  52.477  0.00  0.00    +0.000 A 
ATOM     17  C   UNL     1      28.273   1.680  53.310  0.00  0.00    +0.000 A 
ATOM     18  C   UNL     1      28.201   0.288  53.370  0.00  0.00    +0.000 A 
ATOM     19 CL   UNL     1      29.332  -0.524  54.390  0.00  0.00    +0.000 Cl
ATOM     20  C   UNL     1      27.237  -0.391  52.616  0.00  0.00    +0.000 A 
ATOM     21 CL   UNL     1      27.088  -2.113  52.651  0.00  0.00    +0.000 Cl
ATOM     22  C   UNL     1      26.363   0.319  51.789  0.00  0.00    +0.000 A 
ENDBRANCH  13  15
ENDBRANCH   4  13
BRANCH  10  23
ATOM     23  O   UNL     1      19.488   2.318  52.386  0.00  0.00    +0.000 OA
BRANCH  23  24
ATOM     24  C   UNL     1      18.628   3.106  51.518  0.00  0.00    +0.000 C 
BRANCH  24  25
ATOM     25  C   UNL     1      18.554   2.714  50.006  0.00  0.00    +0.000 C 
ATOM     26  C   UNL     1      19.408   3.543  49.018  0.00  0.00    +0.000 C 
ATOM     27  N   UNL     1      20.799   3.083  48.903  0.00  0.00    +0.000 N 
ATOM     28  C   UNL     1      21.870   3.854  48.462  0.00  0.00    +0.000 C 
ATOM     29  C   UNL     1      21.686   5.343  48.314  0.00  0.00    +0.000 C 
ATOM     30  O   UNL     1      22.959   3.360  48.160  0.00  0.00    +0.000 OA
ATOM     31  C   UNL     1      20.924   1.638  48.719  0.00  0.00    +0.000 C 
ATOM     32  C   UNL     1      20.110   0.875  49.764  0.00  0.00    +0.000 C 
ATOM     33  O   UNL     1      18.744   1.293  49.809  0.00  0.00    +0.000 OA
ENDBRANCH  24  25
ENDBRANCH  23  24
ENDBRANCH  10  23
TORSDOF 6
ENDMDL
MODEL 5
REMARK VINA RESULT:    -8.111      3.227      5.507
REMARK INTER + INTRA:         -12.693
REMARK INTER:                 -11.988
REMARK INTRA:                  -0.705
REMARK UNBOUND:                -1.737
REMARK  Name = 
REMARK  8 active torsions:
REMARK  status: ('A' for Active; 'I' for Inactive)
REMARK    1  A    between atoms: C_1  and  O_2
REMARK    2  A    between atoms: O_2  and  C_3
REMARK    3  A    between atoms: C_6  and  N_7
REMARK    4  A    between atoms: N_7  and  C_8
REMARK    5  A    between atoms: C_21  and  O_22
REMARK    6  A    between atoms: O_22  and  C_23
REMARK    7  A    between atoms: C_23  and  C_24
REMARK    8  A    between atoms: C_27  and  C_28
REMARK                            x       y       z     vdW  Elec       q    Type
REMARK                         _______ _______ _______ _____ _____    ______ ____
ROOT
ATOM      1  C   UNL     1      20.431   0.689  50.973  0.00  0.00    +0.000 A 
ATOM      2  C   UNL     1      21.739   0.648  51.442  0.00  0.00    +0.000 A 
ATOM      3  C   UNL     1      22.011   0.078  52.701  0.00  0.00    +0.000 A 
ATOM      4  C   UNL     1      23.285  -0.021  53.280  0.00  0.00    +0.000 A 
ATOM      5  N   UNL     1      23.489  -0.757  54.390  0.00  0.00    +0.000 NA
ATOM      6  C   UNL     1      22.419  -1.352  54.940  0.00  0.00    +0.000 A 
ATOM      7  N   UNL     1      21.157  -1.235  54.513  0.00  0.00    +0.000 NA
ATOM      8  C   UNL     1      20.968  -0.512  53.419  0.00  0.00    +0.000 A 
ATOM      9  C   UNL     1      19.663  -0.266  53.008  0.00  0.00    +0.000 A 
ATOM     10  C   UNL     1      19.387   0.499  51.880  0.00  0.00    +0.000 A 
ENDROOT
BRANCH   1  12
ATOM     11  C   UNL     1      21.289   1.472  48.945  0.00  0.00    +0.000 C 
ATOM     12  O   UNL     1      20.195   0.810  49.624  0.00  0.00    +0.000 OA
ENDBRANCH   1  12
BRANCH   4  13
ATOM     13  N   UNL     1      24.370   0.739  52.800  0.00  0.00    +0.000 N 
ATOM     14  H   UNL     1      24.166   1.565  52.306  0.00  0.00    +0.000 HD
BRANCH  13  15
ATOM     15  C   UNL     1      25.726   0.401  52.980  0.00  0.00    +0.000 A 
ATOM     16  C   UNL     1      26.188  -0.893  52.712  0.00  0.00    +0.000 A 
ATOM     17  C   UNL     1      27.529  -1.224  52.894  0.00  0.00    +0.000 A 
ATOM     18  C   UNL     1      28.431  -0.256  53.336  0.00  0.00    +0.000 A 
ATOM     19 CL   UNL     1      30.068  -0.744  53.581  0.00  0.00    +0.000 Cl
ATOM     20  C   UNL     1      27.987   1.053  53.564  0.00  0.00    +0.000 A 
ATOM     21 CL   UNL     1      29.053   2.302  54.103  0.00  0.00    +0.000 Cl
ATOM     22  C   UNL     1      26.645   1.383  53.370  0.00  0.00    +0.000 A 
ENDBRANCH  13  15
ENDBRANCH   4  13
BRANCH  10  23
ATOM     23  O   UNL     1      18.186   1.133  51.677  0.00  0.00    +0.000 OA
BRANCH  23  24
ATOM     24  C   UNL     1      18.176   2.586  51.629  0.00  0.00    +0.000 C 
BRANCH  24  25
ATOM     25  C   UNL     1      16.949   3.290  50.964  0.00  0.00    +0.000 C 
ATOM     26  C   UNL     1      15.767   2.390  50.531  0.00  0.00    +0.000 C 
ATOM     27  N   UNL     1      14.811   2.102  51.609  0.00  0.00    +0.000 N 
ATOM     28  C   UNL     1      13.939   1.019  51.645  0.00  0.00    +0.000 C 
ATOM     29  C   UNL     1      14.120  -0.099  50.650  0.00  0.00    +0.000 C 
ATOM     30  O   UNL     1      13.003   0.952  52.446  0.00  0.00    +0.000 OA
ATOM     31  C   UNL     1      14.403   3.287  52.361  0.00  0.00    +0.000 C 
ATOM     32  C   UNL     1      15.616   4.099  52.816  0.00  0.00    +0.000 C 
ATOM     33  O   UNL     1      16.495   4.426  51.738  0.00  0.00    +0.000 OA
ENDBRANCH  24  25
ENDBRANCH  23  24
ENDBRANCH  10  23
TORSDOF 6
ENDMDL
MODEL 6
REMARK VINA RESULT:    -8.106      3.681      6.284
REMARK INTER + INTRA:         -12.687
REMARK INTER:                 -12.034
REMARK INTRA:                  -0.653
REMARK UNBOUND:                -1.737
REMARK  Name = 
REMARK  8 active torsions:
REMARK  status: ('A' for Active; 'I' for Inactive)
REMARK    1  A    between atoms: C_1  and  O_2
REMARK    2  A    between atoms: O_2  and  C_3
REMARK    3  A    between atoms: C_6  and  N_7
REMARK    4  A    between atoms: N_7  and  C_8
REMARK    5  A    between atoms: C_21  and  O_22
REMARK    6  A    between atoms: O_22  and  C_23
REMARK    7  A    between atoms: C_23  and  C_24
REMARK    8  A    between atoms: C_27  and  C_28
REMARK                            x       y       z     vdW  Elec       q    Type
REMARK                         _______ _______ _______ _____ _____    ______ ____
ROOT
ATOM      1  C   UNL     1      20.508   0.534  51.273  0.00  0.00    +0.000 A 
ATOM      2  C   UNL     1      21.818   0.529  51.738  0.00  0.00    +0.000 A 
ATOM      3  C   UNL     1      22.112  -0.041  52.992  0.00  0.00    +0.000 A 
ATOM      4  C   UNL     1      23.389  -0.107  53.566  0.00  0.00    +0.000 A 
ATOM      5  N   UNL     1      23.620  -0.844  54.670  0.00  0.00    +0.000 NA
ATOM      6  C   UNL     1      22.569  -1.474  55.220  0.00  0.00    +0.000 A 
ATOM      7  N   UNL     1      21.303  -1.391  54.799  0.00  0.00    +0.000 NA
ATOM      8  C   UNL     1      21.088  -0.666  53.710  0.00  0.00    +0.000 A 
ATOM      9  C   UNL     1      19.775  -0.457  53.305  0.00  0.00    +0.000 A 
ATOM     10  C   UNL     1      19.473   0.308  52.183  0.00  0.00    +0.000 A 
ENDROOT
BRANCH   1  12
ATOM     11  C   UNL     1      20.512   2.003  49.456  0.00  0.00    +0.000 C 
ATOM     12  O   UNL     1      20.263   0.656  49.926  0.00  0.00    +0.000 OA
ENDBRANCH   1  12
BRANCH   4  13
ATOM     13  N   UNL     1      24.450   0.688  53.088  0.00  0.00    +0.000 N 
ATOM     14  H   UNL     1      24.222   1.537  52.647  0.00  0.00    +0.000 HD
BRANCH  13  15
ATOM     15  C   UNL     1      25.814   0.353  53.198  0.00  0.00    +0.000 A 
ATOM     16  C   UNL     1      26.278  -0.915  52.826  0.00  0.00    +0.000 A 
ATOM     17  C   UNL     1      27.628  -1.243  52.939  0.00  0.00    +0.000 A 
ATOM     18  C   UNL     1      28.535  -0.297  53.415  0.00  0.00    +0.000 A 
ATOM     19 CL   UNL     1      30.184  -0.783  53.571  0.00  0.00    +0.000 Cl
ATOM     20  C   UNL     1      28.089   0.988  53.747  0.00  0.00    +0.000 A 
ATOM     21 CL   UNL     1      29.162   2.209  54.334  0.00  0.00    +0.000 Cl
ATOM     22  C   UNL     1      26.738   1.316  53.623  0.00  0.00    +0.000 A 
ENDBRANCH  13  15
ENDBRANCH   4  13
BRANCH  10  23
ATOM     23  O   UNL     1      18.254   0.908  51.988  0.00  0.00    +0.000 OA
BRANCH  23  24
ATOM     24  C   UNL     1      17.238   0.175  51.248  0.00  0.00    +0.000 C 
BRANCH  24  25
ATOM     25  C   UNL     1      15.994  -0.351  52.034  0.00  0.00    +0.000 C 
ATOM     26  C   UNL     1      15.092   0.704  52.719  0.00  0.00    +0.000 C 
ATOM     27  N   UNL     1      14.080   1.290  51.829  0.00  0.00    +0.000 N 
ATOM     28  C   UNL     1      13.453   2.518  52.019  0.00  0.00    +0.000 C 
ATOM     29  C   UNL     1      13.993   3.460  53.064  0.00  0.00    +0.000 C 
ATOM     30  O   UNL     1      12.452   2.853  51.381  0.00  0.00    +0.000 OA
ATOM     31  C   UNL     1      13.339   0.299  51.052  0.00  0.00    +0.000 C 
ATOM     32  C   UNL     1      14.286  -0.674  50.349  0.00  0.00    +0.000 C 
ATOM     33  O   UNL     1      15.215  -1.283  51.247  0.00  0.00    +0.000 OA
ENDBRANCH  24  25
ENDBRANCH  23  24
ENDBRANCH  10  23
TORSDOF 6
ENDMDL
MODEL 7
REMARK VINA RESULT:    -8.066      2.965      5.700
REMARK INTER + INTRA:         -12.632
REMARK INTER:                 -11.518
REMARK INTRA:                  -1.114
REMARK UNBOUND:                -1.737
REMARK  Name = 
REMARK  8 active torsions:
REMARK  status: ('A' for Active; 'I' for Inactive)
REMARK    1  A    between atoms: C_1  and  O_2
REMARK    2  A    between atoms: O_2  and  C_3
REMARK    3  A    between atoms: C_6  and  N_7
REMARK    4  A    between atoms: N_7  and  C_8
REMARK    5  A    between atoms: C_21  and  O_22
REMARK    6  A    between atoms: O_22  and  C_23
REMARK    7  A    between atoms: C_23  and  C_24
REMARK    8  A    between atoms: C_27  and  C_28
REMARK                            x       y       z     vdW  Elec       q    Type
REMARK                         _______ _______ _______ _____ _____    ______ ____
ROOT
ATOM      1  C   UNL     1      21.472   0.671  52.686  0.00  0.00    +0.000 A 
ATOM      2  C   UNL     1      22.742   1.071  52.284  0.00  0.00    +0.000 A 
ATOM      3  C   UNL     1      23.012   2.439  52.086  0.00  0.00    +0.000 A 
ATOM      4  C   UNL     1      24.248   2.964  51.683  0.00  0.00    +0.000 A 
ATOM      5  N   UNL     1      24.484   4.291  51.713  0.00  0.00    +0.000 NA
ATOM      6  C   UNL     1      23.475   5.088  52.101  0.00  0.00    +0.000 A 
ATOM      7  N   UNL     1      22.238   4.684  52.410  0.00  0.00    +0.000 NA
ATOM      8  C   UNL     1      22.018   3.377  52.381  0.00  0.00    +0.000 A 
ATOM      9  C   UNL     1      20.720   2.922  52.580  0.00  0.00    +0.000 A 
ATOM     10  C   UNL     1      20.410   1.566  52.545  0.00  0.00    +0.000 A 
ENDROOT
BRANCH   1  12
ATOM     11  C   UNL     1      21.490  -0.448  54.737  0.00  0.00    +0.000 C 
ATOM     12  O   UNL     1      21.306  -0.545  53.304  0.00  0.00    +0.000 OA
ENDBRANCH   1  12
BRANCH   4  13
ATOM     13  N   UNL     1      25.244   2.145  51.118  0.00  0.00    +0.000 N 
ATOM     14  H   UNL     1      25.228   2.013  50.142  0.00  0.00    +0.000 HD
BRANCH  13  15
ATOM     15  C   UNL     1      26.263   1.502  51.848  0.00  0.00    +0.000 A 
ATOM     16  C   UNL     1      27.238   2.240  52.529  0.00  0.00    +0.000 A 
ATOM     17  C   UNL     1      28.245   1.600  53.248  0.00  0.00    +0.000 A 
ATOM     18  C   UNL     1      28.280   0.207  53.307  0.00  0.00    +0.000 A 
ATOM     19 CL   UNL     1      29.579  -0.522  54.179  0.00  0.00    +0.000 Cl
ATOM     20  C   UNL     1      27.284  -0.540  52.666  0.00  0.00    +0.000 A 
ATOM     21 CL   UNL     1      27.263  -2.268  52.706  0.00  0.00    +0.000 Cl
ATOM     22  C   UNL     1      26.270   0.105  51.955  0.00  0.00    +0.000 A 
ENDBRANCH  13  15
ENDBRANCH   4  13
BRANCH  10  23
ATOM     23  O   UNL     1      19.148   1.089  52.293  0.00  0.00    +0.000 OA
BRANCH  23  24
ATOM     24  C   UNL     1      18.931   0.329  51.072  0.00  0.00    +0.000 C 
BRANCH  24  25
ATOM     25  C   UNL     1      17.710   0.713  50.176  0.00  0.00    +0.000 C 
ATOM     26  C   UNL     1      16.304   0.607  50.814  0.00  0.00    +0.000 C 
ATOM     27  N   UNL     1      15.908   1.796  51.582  0.00  0.00    +0.000 N 
ATOM     28  C   UNL     1      14.946   1.822  52.587  0.00  0.00    +0.000 C 
ATOM     29  C   UNL     1      14.421   0.517  53.131  0.00  0.00    +0.000 C 
ATOM     30  O   UNL     1      14.486   2.876  53.032  0.00  0.00    +0.000 OA
ATOM     31  C   UNL     1      16.139   3.053  50.875  0.00  0.00    +0.000 C 
ATOM     32  C   UNL     1      17.563   3.125  50.324  0.00  0.00    +0.000 C 
ATOM     33  O   UNL     1      17.901   1.991  49.523  0.00  0.00    +0.000 OA
ENDBRANCH  24  25
ENDBRANCH  23  24
ENDBRANCH  10  23
TORSDOF 6
ENDMDL
MODEL 8
REMARK VINA RESULT:    -7.868      3.634      7.349
REMARK INTER + INTRA:         -12.365
REMARK INTER:                 -11.353
REMARK INTRA:                  -1.011
REMARK UNBOUND:                -1.737
REMARK  Name = 
REMARK  8 active torsions:
REMARK  status: ('A' for Active; 'I' for Inactive)
REMARK    1  A    between atoms: C_1  and  O_2
REMARK    2  A    between atoms: O_2  and  C_3
REMARK    3  A    between atoms: C_6  and  N_7
REMARK    4  A    between atoms: N_7  and  C_8
REMARK    5  A    between atoms: C_21  and  O_22
REMARK    6  A    between atoms: O_22  and  C_23
REMARK    7  A    between atoms: C_23  and  C_24
REMARK    8  A    between atoms: C_27  and  C_28
REMARK                            x       y       z     vdW  Elec       q    Type
REMARK                         _______ _______ _______ _____ _____    ______ ____
ROOT
ATOM      1  C   UNL     1      26.135   1.869  52.216  0.00  0.00    +0.000 A 
ATOM      2  C   UNL     1      26.033   2.817  51.204  0.00  0.00    +0.000 A 
ATOM      3  C   UNL     1      24.972   3.743  51.220  0.00  0.00    +0.000 A 
ATOM      4  C   UNL     1      24.763   4.743  50.259  0.00  0.00    +0.000 A 
ATOM      5  N   UNL     1      23.848   5.714  50.452  0.00  0.00    +0.000 NA
ATOM      6  C   UNL     1      23.119   5.658  51.578  0.00  0.00    +0.000 A 
ATOM      7  N   UNL     1      23.183   4.692  52.501  0.00  0.00    +0.000 NA
ATOM      8  C   UNL     1      24.088   3.744  52.303  0.00  0.00    +0.000 A 
ATOM      9  C   UNL     1      24.110   2.660  53.173  0.00  0.00    +0.000 A 
ATOM     10  C   UNL     1      25.019   1.619  53.016  0.00  0.00    +0.000 A 
ENDROOT
BRANCH   1  12
ATOM     11  C   UNL     1      28.113   2.026  53.450  0.00  0.00    +0.000 C 
ATOM     12  O   UNL     1      27.349   1.278  52.474  0.00  0.00    +0.000 OA
ENDBRANCH   1  12
BRANCH   4  13
ATOM     13  N   UNL     1      25.407   4.703  49.007  0.00  0.00    +0.000 N 
ATOM     14  H   UNL     1      25.020   4.124  48.312  0.00  0.00    +0.000 HD
BRANCH  13  15
ATOM     15  C   UNL     1      26.566   5.436  48.679  0.00  0.00    +0.000 A 
ATOM     16  C   UNL     1      27.819   4.816  48.622  0.00  0.00    +0.000 A 
ATOM     17  C   UNL     1      28.963   5.544  48.300  0.00  0.00    +0.000 A 
ATOM     18  C   UNL     1      28.862   6.906  48.016  0.00  0.00    +0.000 A 
ATOM     19 CL   UNL     1      30.322   7.757  47.667  0.00  0.00    +0.000 Cl
ATOM     20  C   UNL     1      27.607   7.527  48.027  0.00  0.00    +0.000 A 
ATOM     21 CL   UNL     1      27.410   9.208  47.676  0.00  0.00    +0.000 Cl
ATOM     22  C   UNL     1      26.462   6.791  48.340  0.00  0.00    +0.000 A 
ENDBRANCH  13  15
ENDBRANCH   4  13
BRANCH  10  23
ATOM     23  O   UNL     1      24.819   0.363  53.531  0.00  0.00    +0.000 OA
BRANCH  23  24
ATOM     24  C   UNL     1      23.547  -0.292  53.272  0.00  0.00    +0.000 C 
BRANCH  24  25
ATOM     25  C   UNL     1      22.371  -0.033  54.269  0.00  0.00    +0.000 C 
ATOM     26  C   UNL     1      21.103   0.651  53.705  0.00  0.00    +0.000 C 
ATOM     27  N   UNL     1      20.153  -0.280  53.078  0.00  0.00    +0.000 N 
ATOM     28  C   UNL     1      19.189   0.065  52.137  0.00  0.00    +0.000 C 
ATOM     29  C   UNL     1      19.244   1.431  51.500  0.00  0.00    +0.000 C 
ATOM     30  O   UNL     1      18.271  -0.697  51.823  0.00  0.00    +0.000 OA
ATOM     31  C   UNL     1      19.872  -1.462  53.890  0.00  0.00    +0.000 C 
ATOM     32  C   UNL     1      21.163  -2.130  54.362  0.00  0.00    +0.000 C 
ATOM     33  O   UNL     1      22.040  -1.219  55.030  0.00  0.00    +0.000 OA
ENDBRANCH  24  25
ENDBRANCH  23  24
ENDBRANCH  10  23
TORSDOF 6
ENDMDL
MODEL 9
REMARK VINA RESULT:    -7.615      2.780      4.180
REMARK INTER + INTRA:         -12.023
REMARK INTER:                 -10.830
REMARK INTRA:                  -1.193
REMARK UNBOUND:                -1.737
REMARK  Name = 
REMARK  8 active torsions:
REMARK  status: ('A' for Active; 'I' for Inactive)
REMARK    1  A    between atoms: C_1  and  O_2
REMARK    2  A    between atoms: O_2  and  C_3
REMARK    3  A    between atoms: C_6  and  N_7
REMARK    4  A    between atoms: N_7  and  C_8
REMARK    5  A    between atoms: C_21  and  O_22
REMARK    6  A    between atoms: O_22  and  C_23
REMARK    7  A    between atoms: C_23  and  C_24
REMARK    8  A    between atoms: C_27  and  C_28
REMARK                            x       y       z     vdW  Elec       q    Type
REMARK                         _______ _______ _______ _____ _____    ______ ____
ROOT
ATOM      1  C   UNL     1      23.968   3.409  49.793  0.00  0.00    +0.000 A 
ATOM      2  C   UNL     1      24.237   2.665  50.937  0.00  0.00    +0.000 A 
ATOM      3  C   UNL     1      23.293   1.727  51.398  0.00  0.00    +0.000 A 
ATOM      4  C   UNL     1      23.450   0.921  52.534  0.00  0.00    +0.000 A 
ATOM      5  N   UNL     1      22.597  -0.090  52.793  0.00  0.00    +0.000 NA
ATOM      6  C   UNL     1      21.570  -0.263  51.945  0.00  0.00    +0.000 A 
ATOM      7  N   UNL     1      21.289   0.515  50.894  0.00  0.00    +0.000 NA
ATOM      8  C   UNL     1      22.136   1.503  50.646  0.00  0.00    +0.000 A 
ATOM      9  C   UNL     1      21.820   2.405  49.637  0.00  0.00    +0.000 A 
ATOM     10  C   UNL     1      22.652   3.478  49.333  0.00  0.00    +0.000 A 
ENDROOT
BRANCH   1  12
ATOM     11  C   UNL     1      25.554   5.125  49.764  0.00  0.00    +0.000 C 
ATOM     12  O   UNL     1      25.005   3.969  49.086  0.00  0.00    +0.000 OA
ENDBRANCH   1  12
BRANCH   4  13
ATOM     13  N   UNL     1      24.424   1.208  53.509  0.00  0.00    +0.000 N 
ATOM     14  H   UNL     1      24.161   1.786  54.261  0.00  0.00    +0.000 HD
BRANCH  13  15
ATOM     15  C   UNL     1      25.748   0.726  53.486  0.00  0.00    +0.000 A 
ATOM     16  C   UNL     1      26.032  -0.583  53.079  0.00  0.00    +0.000 A 
ATOM     17  C   UNL     1      27.342  -1.057  53.060  0.00  0.00    +0.000 A 
ATOM     18  C   UNL     1      28.390  -0.218  53.437  0.00  0.00    +0.000 A 
ATOM     19 CL   UNL     1      29.983  -0.882  53.432  0.00  0.00    +0.000 Cl
ATOM     20  C   UNL     1      28.122   1.107  53.802  0.00  0.00    +0.000 A 
ATOM     21 CL   UNL     1      29.374   2.202  54.271  0.00  0.00    +0.000 Cl
ATOM     22  C   UNL     1      26.808   1.582  53.810  0.00  0.00    +0.000 A 
ENDBRANCH  13  15
ENDBRANCH   4  13
BRANCH  10  23
ATOM     23  O   UNL     1      22.214   4.611  48.693  0.00  0.00    +0.000 OA
BRANCH  23  24
ATOM     24  C   UNL     1      21.015   5.263  49.194  0.00  0.00    +0.000 C 
BRANCH  24  25
ATOM     25  C   UNL     1      19.836   5.499  48.195  0.00  0.00    +0.000 C 
ATOM     26  C   UNL     1      20.207   5.811  46.726  0.00  0.00    +0.000 C 
ATOM     27  N   UNL     1      20.450   4.615  45.906  0.00  0.00    +0.000 N 
ATOM     28  C   UNL     1      21.196   4.580  44.732  0.00  0.00    +0.000 C 
ATOM     29  C   UNL     1      22.040   5.776  44.366  0.00  0.00    +0.000 C 
ATOM     30  O   UNL     1      21.173   3.616  43.964  0.00  0.00    +0.000 OA
ATOM     31  C   UNL     1      19.417   3.590  46.046  0.00  0.00    +0.000 C 
ATOM     32  C   UNL     1      19.142   3.280  47.518  0.00  0.00    +0.000 C 
ATOM     33  O   UNL     1      18.841   4.451  48.280  0.00  0.00    +0.000 OA
ENDBRANCH  24  25
ENDBRANCH  23  24
ENDBRANCH  10  23
TORSDOF 6
ENDMDL
