
     RDKit          3D

 39 41  0  0  0  0  0  0  0  0999 V2000
   -2.1232   -0.6963    1.5881 C   0  0  0  0  0  0  0  0  0  0  0  0
   -2.6754    0.1124    0.4530 C   0  0  0  0  0  0  0  0  0  0  0  0
   -1.9744    0.8679   -0.4969 C   0  0  0  0  0  0  0  0  0  0  0  0
   -0.5109    1.0192   -0.6116 C   0  0  0  0  0  0  0  0  0  0  0  0
   -0.0431    2.0944   -1.0751 O   0  0  0  0  0  0  0  0  0  0  0  0
    0.3768   -0.0473   -0.2500 N   0  0  0  0  0  0  0  0  0  0  0  0
    1.8208    0.1652   -0.1573 C   0  0  0  0  0  0  0  0  0  0  0  0
    2.5363   -1.1227    0.2604 C   0  0  0  0  0  0  0  0  0  0  0  0
    4.0203   -0.8948    0.3661 C   0  0  0  0  0  0  0  0  0  0  0  0
    4.5857   -0.4555    1.5749 C   0  0  0  0  0  0  0  0  0  0  0  0
    5.9602   -0.2131    1.6625 C   0  0  0  0  0  0  0  0  0  0  0  0
    6.7772   -0.3978    0.5432 C   0  0  0  0  0  0  0  0  0  0  0  0
    8.1093   -0.1608    0.6296 F   0  0  0  0  0  0  0  0  0  0  0  0
    6.2195   -0.8216   -0.6666 C   0  0  0  0  0  0  0  0  0  0  0  0
    4.8455   -1.0650   -0.7582 C   0  0  0  0  0  0  0  0  0  0  0  0
   -2.8390    1.4968   -1.3290 N   0  0  0  0  0  0  0  0  0  0  0  0
   -4.0698    1.1254   -0.9393 C   0  0  0  0  0  0  0  0  0  0  0  0
   -5.2844    1.5083   -1.5071 C   0  0  0  0  0  0  0  0  0  0  0  0
   -6.4666    0.9983   -0.9398 C   0  0  0  0  0  0  0  0  0  0  0  0
   -7.6686    1.3453   -1.4618 F   0  0  0  0  0  0  0  0  0  0  0  0
   -6.4077    0.1266    0.1702 C   0  0  0  0  0  0  0  0  0  0  0  0
   -5.1677   -0.2420    0.7227 C   0  0  0  0  0  0  0  0  0  0  0  0
   -4.0117    0.2791    0.1383 C   0  0  0  0  0  0  0  0  0  0  0  0
   -1.9250   -1.7330    1.2458 H   0  0  0  0  0  0  0  0  0  0  0  0
   -1.1858   -0.2400    1.9680 H   0  0  0  0  0  0  0  0  0  0  0  0
   -2.8473   -0.7269    2.4283 H   0  0  0  0  0  0  0  0  0  0  0  0
   -0.0150   -1.0029   -0.0948 H   0  0  0  0  0  0  0  0  0  0  0  0
    2.0233    0.9602    0.5936 H   0  0  0  0  0  0  0  0  0  0  0  0
    2.2060    0.4994   -1.1455 H   0  0  0  0  0  0  0  0  0  0  0  0
    2.3289   -1.9219   -0.4849 H   0  0  0  0  0  0  0  0  0  0  0  0
    2.1364   -1.4691    1.2389 H   0  0  0  0  0  0  0  0  0  0  0  0
    3.9625   -0.2997    2.4469 H   0  0  0  0  0  0  0  0  0  0  0  0
    6.3904    0.1213    2.5977 H   0  0  0  0  0  0  0  0  0  0  0  0
    6.8506   -0.9585   -1.5353 H   0  0  0  0  0  0  0  0  0  0  0  0
    4.4247   -1.3841   -1.7037 H   0  0  0  0  0  0  0  0  0  0  0  0
   -2.5998    2.1291   -2.1255 H   0  0  0  0  0  0  0  0  0  0  0  0
   -5.3173    2.1767   -2.3578 H   0  0  0  0  0  0  0  0  0  0  0  0
   -7.3223   -0.2612    0.5996 H   0  0  0  0  0  0  0  0  0  0  0  0
   -5.1194   -0.9113    1.5715 H   0  0  0  0  0  0  0  0  0  0  0  0
  1  2  1  0
  2  3  2  0
  3  4  1  0
  4  5  2  0
  4  6  1  0
  6  7  1  0
  7  8  1  0
  8  9  1  0
  9 10  2  0
 10 11  1  0
 11 12  2  0
 12 13  1  0
 12 14  1  0
 14 15  2  0
  3 16  1  0
 16 17  1  0
 17 18  2  0
 18 19  1  0
 19 20  1  0
 19 21  2  0
 21 22  1  0
 22 23  2  0
 23  2  1  0
 15  9  1  0
 23 17  1  0
  1 24  1  0
  1 25  1  0
  1 26  1  0
  6 27  1  0
  7 28  1  0
  7 29  1  0
  8 30  1  0
  8 31  1  0
 10 32  1  0
 11 33  1  0
 14 34  1  0
 15 35  1  0
 16 36  1  0
 18 37  1  0
 21 38  1  0
 22 39  1  0
M  END
