REMARK  Name = 
REMARK  3 active torsions:
REMARK  status: ('A' for Active; 'I' for Inactive)
REMARK    1  A    between atoms: C_1  and  N_2
REMARK    2  A    between atoms: C_8  and  O_9
REMARK    3  A    between atoms: O_9  and  C_10
REMARK                            x       y       z     vdW  Elec       q    Type
REMARK                         _______ _______ _______ _____ _____    ______ ____
ROOT
ATOM      1  C   UNL     1       1.620  -1.101  -2.014  0.00  0.00    +0.000 C 
ATOM      2  N   UNL     1       0.699  -0.369  -1.149  0.00  0.00    +0.000 N 
ATOM      3  C   UNL     1      -0.545  -0.030  -1.875  0.00  0.00    +0.000 C 
ATOM      4  C   UNL     1      -1.561   0.728  -0.985  0.00  0.00    +0.000 C 
ATOM      5  N   UNL     1      -1.831  -0.070   0.211  0.00  0.00    +0.000 N 
ATOM      6  C   UNL     1      -3.047   0.029   0.843  0.00  0.00    +0.000 A 
ATOM      7  N   UNL     1      -3.181  -0.598   2.018  0.00  0.00    +0.000 NA
ATOM      8  C   UNL     1      -4.392  -0.706   2.602  0.00  0.00    +0.000 A 
ATOM      9  C   UNL     1      -5.478  -0.077   2.021  0.00  0.00    +0.000 A 
ATOM     10  S   UNL     1      -7.118   0.026   2.513  0.00  0.00    +0.000 S 
ATOM     11  C   UNL     1      -7.543   0.947   1.136  0.00  0.00    +0.000 A 
ATOM     12  C   UNL     1      -6.463   1.164   0.310  0.00  0.00    +0.000 A 
ATOM     13  C   UNL     1      -5.264   0.583   0.820  0.00  0.00    +0.000 A 
ATOM     14  N   UNL     1      -4.057   0.632   0.214  0.00  0.00    +0.000 NA
ATOM     15  C   UNL     1      -0.643  -0.451   0.980  0.00  0.00    +0.000 C 
ATOM     16  C   UNL     1       0.358  -1.172   0.049  0.00  0.00    +0.000 C 
ATOM     17  H   UNL     1       1.165   0.491  -0.858  0.00  0.00    +0.000 HD
ENDROOT
BRANCH   8  18
ATOM     18  O   UNL     1      -4.525  -1.440   3.774  0.00  0.00    +0.000 OA
BRANCH  18  19
ATOM     19  C   UNL     1      -3.712  -2.542   3.941  0.00  0.00    +0.000 A 
ATOM     20  C   UNL     1      -3.379  -2.872   5.259  0.00  0.00    +0.000 A 
ATOM     21  C   UNL     1      -2.580  -3.990   5.530  0.00  0.00    +0.000 A 
ATOM     22  C   UNL     1      -2.112  -4.783   4.480  0.00  0.00    +0.000 A 
ATOM     23  C   UNL     1      -1.268  -5.956   4.714  0.00  0.00    +0.000 A 
ATOM     24  C   UNL     1      -0.831  -6.685   3.678  0.00  0.00    +0.000 A 
ATOM     25  C   UNL     1      -1.181  -6.333   2.278  0.00  0.00    +0.000 A 
ATOM     26  O   UNL     1      -0.761  -6.995   1.338  0.00  0.00    +0.000 OA
ATOM     27  N   UNL     1      -1.987  -5.241   2.106  0.00  0.00    +0.000 N 
ATOM     28  C   UNL     1      -2.464  -4.457   3.164  0.00  0.00    +0.000 A 
ATOM     29  C   UNL     1      -3.277  -3.359   2.893  0.00  0.00    +0.000 A 
ATOM     30  H   UNL     1      -2.244  -4.993   1.189  0.00  0.00    +0.000 HD
ENDBRANCH  18  19
ENDBRANCH   8  18
TORSDOF 2
