REMARK  Name = 
REMARK  9 active torsions:
REMARK  status: ('A' for Active; 'I' for Inactive)
REMARK    1  A    between atoms: C_1  and  C_2
REMARK    2  A    between atoms: C_2  and  N_3
REMARK    3  A    between atoms: N_6  and  C_7
REMARK    4  A    between atoms: C_7  and  C_8
REMARK    5  A    between atoms: C_11  and  C_12
REMARK    6  A    between atoms: C_15  and  N_16
REMARK    7  A    between atoms: N_16  and  C_17
REMARK    8  A    between atoms: C_17  and  C_18
REMARK    9  A    between atoms: C_17  and  C_19
REMARK                            x       y       z     vdW  Elec       q    Type
REMARK                         _______ _______ _______ _____ _____    ______ ____
ROOT
ATOM      1  C   UNL     1       3.264  -3.698  -5.867  0.00  0.00    +0.000 A 
ATOM      2  C   UNL     1       3.983  -3.020  -6.849  0.00  0.00    +0.000 A 
ATOM      3  C   UNL     1       3.253  -3.071  -8.072  0.00  0.00    +0.000 A 
ATOM      4  C   UNL     1       3.394  -2.561  -9.383  0.00  0.00    +0.000 A 
ATOM      5  N   UNL     1       2.421  -2.863 -10.277  0.00  0.00    +0.000 NA
ATOM      6  C   UNL     1       1.368  -3.606  -9.882  0.00  0.00    +0.000 A 
ATOM      7  N   UNL     1       1.131  -4.124  -8.667  0.00  0.00    +0.000 NA
ATOM      8  C   UNL     1       2.116  -3.818  -7.812  0.00  0.00    +0.000 A 
ATOM      9  N   UNL     1       2.138  -4.189  -6.499  0.00  0.00    +0.000 N 
ATOM     10  H   UNL     1       1.444  -4.733  -6.060  0.00  0.00    +0.000 HD
ENDROOT
BRANCH   1  14
ATOM     11  C   UNL     1       3.514  -3.721  -1.583  0.00  0.00    +0.000 A 
ATOM     12  C   UNL     1       4.231  -2.785  -2.339  0.00  0.00    +0.000 A 
ATOM     13  C   UNL     1       4.198  -2.825  -3.736  0.00  0.00    +0.000 A 
ATOM     14  C   UNL     1       3.467  -3.808  -4.415  0.00  0.00    +0.000 A 
ATOM     15  C   UNL     1       2.861  -4.820  -3.657  0.00  0.00    +0.000 A 
ATOM     16  C   UNL     1       2.873  -4.771  -2.255  0.00  0.00    +0.000 A 
BRANCH  11  17
ATOM     17  C   UNL     1       3.328  -3.519  -0.088  0.00  0.00    +0.000 C 
BRANCH  17  21
ATOM     18  N   UNL     1       2.231  -0.502   2.105  0.00  0.00    +0.000 N 
ATOM     19  C   UNL     1       2.569  -0.433   0.670  0.00  0.00    +0.000 C 
ATOM     20  C   UNL     1       1.893  -1.502  -0.225  0.00  0.00    +0.000 C 
ATOM     21  N   UNL     1       2.026  -2.903   0.229  0.00  0.00    +0.000 N 
ATOM     22  C   UNL     1       1.708  -2.973   1.669  0.00  0.00    +0.000 C 
ATOM     23  C   UNL     1       2.383  -1.901   2.560  0.00  0.00    +0.000 C 
ATOM     24  H   UNL     1       2.879   0.103   2.609  0.00  0.00    +0.000 HD
ATOM     25  H   UNL     1       1.356  -3.463  -0.297  0.00  0.00    +0.000 HD
BRANCH  18  27
ATOM     26  C   UNL     1       0.804   1.545   2.270  0.00  0.00    +0.000 C 
ATOM     27  C   UNL     1       0.896   0.027   2.423  0.00  0.00    +0.000 C 
ENDBRANCH  18  27
ENDBRANCH  17  21
ENDBRANCH  11  17
ENDBRANCH   1  14
BRANCH   4  28
ATOM     28  N   UNL     1       4.455  -1.754  -9.761  0.00  0.00    +0.000 N 
ATOM     29  H   UNL     1       4.960  -1.248  -9.084  0.00  0.00    +0.000 HD
BRANCH  28  30
ATOM     30  C   UNL     1       4.818  -1.660 -11.171  0.00  0.00    +0.000 C 
ATOM     31  C   UNL     1       4.577  -0.213 -11.622  0.00  0.00    +0.000 C 
BRANCH  30  32
ATOM     32  C   UNL     1       6.240  -2.176 -11.376  0.00  0.00    +0.000 A 
ATOM     33  C   UNL     1       6.546  -3.502 -11.014  0.00  0.00    +0.000 A 
ATOM     34  C   UNL     1       7.806  -4.053 -11.259  0.00  0.00    +0.000 A 
ATOM     35  C   UNL     1       8.793  -3.288 -11.876  0.00  0.00    +0.000 A 
ATOM     36  C   UNL     1       8.519  -1.970 -12.235  0.00  0.00    +0.000 A 
ATOM     37  C   UNL     1       7.258  -1.420 -11.986  0.00  0.00    +0.000 A 
ENDBRANCH  30  32
ENDBRANCH  28  30
ENDBRANCH   4  28
TORSDOF 7
