MODEL 1
REMARK VINA RESULT:    -7.775      0.000      0.000
REMARK INTER + INTRA:         -10.203
REMARK INTER:                 -10.047
REMARK INTRA:                  -0.156
REMARK UNBOUND:                -0.156
REMARK  Name = 
REMARK  8 active torsions:
REMARK  status: ('A' for Active; 'I' for Inactive)
REMARK    1  A    between atoms: C_1  and  O_2
REMARK    2  A    between atoms: O_2  and  C_3
REMARK    3  A    between atoms: C_5  and  N_6
REMARK    4  A    between atoms: C_13  and  C_14
REMARK    5  A    between atoms: C_22  and  O_23
REMARK    6  A    between atoms: O_23  and  C_24
REMARK    7  A    between atoms: C_25  and  O_26
REMARK    8  A    between atoms: O_26  and  C_27
REMARK                            x       y       z     vdW  Elec       q    Type
REMARK                         _______ _______ _______ _____ _____    ______ ____
ROOT
ATOM      1  N   UNL     1      21.912   0.225  53.397  0.00  0.00    +0.000 N 
ATOM      2  C   UNL     1      22.806   1.262  53.057  0.00  0.00    +0.000 A 
ATOM      3  N   UNL     1      22.313   2.470  52.680  0.00  0.00    +0.000 NA
ATOM      4  C   UNL     1      23.154   3.442  52.311  0.00  0.00    +0.000 A 
ATOM      5  N   UNL     1      24.485   3.379  52.270  0.00  0.00    +0.000 NA
ATOM      6  C   UNL     1      24.989   2.189  52.662  0.00  0.00    +0.000 A 
ATOM      7  C   UNL     1      26.380   1.880  52.707  0.00  0.00    +0.000 A 
ATOM      8  C   UNL     1      26.634   0.594  53.139  0.00  0.00    +0.000 A 
ATOM      9  S   UNL     1      25.170  -0.241  53.470  0.00  0.00    +0.000 S 
ATOM     10  C   UNL     1      24.197   1.117  53.062  0.00  0.00    +0.000 A 
ATOM     11  H   UNL     1      22.199  -0.427  54.077  0.00  0.00    +0.000 HD
ENDROOT
BRANCH   1  14
ATOM     12  C   UNL     1      18.348  -0.830  52.958  0.00  0.00    +0.000 A 
ATOM     13  C   UNL     1      19.625  -0.642  53.500  0.00  0.00    +0.000 A 
ATOM     14  C   UNL     1      20.629   0.061  52.824  0.00  0.00    +0.000 A 
ATOM     15  C   UNL     1      20.333   0.625  51.586  0.00  0.00    +0.000 A 
ATOM     16  C   UNL     1      19.075   0.420  50.998  0.00  0.00    +0.000 A 
ATOM     17  C   UNL     1      18.064  -0.285  51.693  0.00  0.00    +0.000 A 
BRANCH  12  19
ATOM     18  C   UNL     1      17.586  -3.009  53.542  0.00  0.00    +0.000 C 
ATOM     19  O   UNL     1      17.400  -1.598  53.583  0.00  0.00    +0.000 OA
ENDBRANCH  12  19
BRANCH  16  20
ATOM     20  O   UNL     1      18.748   0.920  49.758  0.00  0.00    +0.000 OA
ATOM     21  C   UNL     1      18.645   2.338  49.680  0.00  0.00    +0.000 C 
ENDBRANCH  16  20
BRANCH  17  22
ATOM     22  O   UNL     1      16.873  -0.418  51.017  0.00  0.00    +0.000 OA
ATOM     23  C   UNL     1      15.810   0.441  51.409  0.00  0.00    +0.000 C 
ENDBRANCH  17  22
ENDBRANCH   1  14
BRANCH   8  24
ATOM     24  C   UNL     1      27.923  -0.028  53.321  0.00  0.00    +0.000 A 
ATOM     25  C   UNL     1      28.266  -1.352  53.112  0.00  0.00    +0.000 A 
ATOM     26  C   UNL     1      29.633  -1.620  53.414  0.00  0.00    +0.000 A 
ATOM     27  C   UNL     1      30.297  -0.496  53.844  0.00  0.00    +0.000 A 
ATOM     28  S   UNL     1      29.280   0.875  53.871  0.00  0.00    +0.000 S 
ENDBRANCH   8  24
TORSDOF 5
ENDMDL
MODEL 2
REMARK VINA RESULT:    -7.726      4.177      8.931
REMARK INTER + INTRA:         -10.140
REMARK INTER:                  -9.757
REMARK INTRA:                  -0.382
REMARK UNBOUND:                -0.156
REMARK  Name = 
REMARK  8 active torsions:
REMARK  status: ('A' for Active; 'I' for Inactive)
REMARK    1  A    between atoms: C_1  and  O_2
REMARK    2  A    between atoms: O_2  and  C_3
REMARK    3  A    between atoms: C_5  and  N_6
REMARK    4  A    between atoms: C_13  and  C_14
REMARK    5  A    between atoms: C_22  and  O_23
REMARK    6  A    between atoms: O_23  and  C_24
REMARK    7  A    between atoms: C_25  and  O_26
REMARK    8  A    between atoms: O_26  and  C_27
REMARK                            x       y       z     vdW  Elec       q    Type
REMARK                         _______ _______ _______ _____ _____    ______ ____
ROOT
ATOM      1  N   UNL     1      21.896  -0.199  52.427  0.00  0.00    +0.000 N 
ATOM      2  C   UNL     1      21.100   0.322  51.384  0.00  0.00    +0.000 A 
ATOM      3  N   UNL     1      21.701   0.912  50.319  0.00  0.00    +0.000 NA
ATOM      4  C   UNL     1      20.951   1.449  49.351  0.00  0.00    +0.000 A 
ATOM      5  N   UNL     1      19.620   1.474  49.286  0.00  0.00    +0.000 NA
ATOM      6  C   UNL     1      19.010   0.870  50.330  0.00  0.00    +0.000 A 
ATOM      7  C   UNL     1      17.598   0.766  50.485  0.00  0.00    +0.000 A 
ATOM      8  C   UNL     1      17.228   0.107  51.640  0.00  0.00    +0.000 A 
ATOM      9  S   UNL     1      18.610  -0.365  52.544  0.00  0.00    +0.000 S 
ATOM     10  C   UNL     1      19.702   0.285  51.386  0.00  0.00    +0.000 A 
ATOM     11  H   UNL     1      21.561  -0.987  52.913  0.00  0.00    +0.000 HD
ENDROOT
BRANCH   1  14
ATOM     12  C   UNL     1      25.469  -0.000  53.520  0.00  0.00    +0.000 A 
ATOM     13  C   UNL     1      24.224  -0.499  53.120  0.00  0.00    +0.000 A 
ATOM     14  C   UNL     1      23.144   0.339  52.819  0.00  0.00    +0.000 A 
ATOM     15  C   UNL     1      23.329   1.718  52.882  0.00  0.00    +0.000 A 
ATOM     16  C   UNL     1      24.553   2.247  53.318  0.00  0.00    +0.000 A 
ATOM     17  C   UNL     1      25.641   1.393  53.612  0.00  0.00    +0.000 A 
BRANCH  12  19
ATOM     18  C   UNL     1      27.122  -1.591  52.880  0.00  0.00    +0.000 C 
ATOM     19  O   UNL     1      26.494  -0.827  53.904  0.00  0.00    +0.000 OA
ENDBRANCH  12  19
BRANCH  16  20
ATOM     20  O   UNL     1      24.773   3.602  53.438  0.00  0.00    +0.000 OA
ATOM     21  C   UNL     1      23.747   4.435  52.907  0.00  0.00    +0.000 C 
ENDBRANCH  16  20
BRANCH  17  22
ATOM     22  O   UNL     1      26.790   2.028  54.026  0.00  0.00    +0.000 OA
ATOM     23  C   UNL     1      27.854   2.112  53.086  0.00  0.00    +0.000 C 
ENDBRANCH  17  22
ENDBRANCH   1  14
BRANCH   8  24
ATOM     24  C   UNL     1      15.889  -0.190  52.087  0.00  0.00    +0.000 A 
ATOM     25  C   UNL     1      14.989   0.662  52.702  0.00  0.00    +0.000 A 
ATOM     26  C   UNL     1      13.757   0.022  53.026  0.00  0.00    +0.000 A 
ATOM     27  C   UNL     1      13.749  -1.301  52.649  0.00  0.00    +0.000 A 
ATOM     28  S   UNL     1      15.212  -1.760  51.898  0.00  0.00    +0.000 S 
ENDBRANCH   8  24
TORSDOF 5
ENDMDL
MODEL 3
REMARK VINA RESULT:    -7.696      0.313      2.455
REMARK INTER + INTRA:         -10.101
REMARK INTER:                  -9.972
REMARK INTRA:                  -0.130
REMARK UNBOUND:                -0.156
REMARK  Name = 
REMARK  8 active torsions:
REMARK  status: ('A' for Active; 'I' for Inactive)
REMARK    1  A    between atoms: C_1  and  O_2
REMARK    2  A    between atoms: O_2  and  C_3
REMARK    3  A    between atoms: C_5  and  N_6
REMARK    4  A    between atoms: C_13  and  C_14
REMARK    5  A    between atoms: C_22  and  O_23
REMARK    6  A    between atoms: O_23  and  C_24
REMARK    7  A    between atoms: C_25  and  O_26
REMARK    8  A    between atoms: O_26  and  C_27
REMARK                            x       y       z     vdW  Elec       q    Type
REMARK                         _______ _______ _______ _____ _____    ______ ____
ROOT
ATOM      1  N   UNL     1      21.768   0.345  53.184  0.00  0.00    +0.000 N 
ATOM      2  C   UNL     1      22.677   1.388  52.903  0.00  0.00    +0.000 A 
ATOM      3  N   UNL     1      22.200   2.609  52.549  0.00  0.00    +0.000 NA
ATOM      4  C   UNL     1      23.056   3.588  52.236  0.00  0.00    +0.000 A 
ATOM      5  N   UNL     1      24.387   3.520  52.235  0.00  0.00    +0.000 NA
ATOM      6  C   UNL     1      24.874   2.316  52.607  0.00  0.00    +0.000 A 
ATOM      7  C   UNL     1      26.261   1.999  52.687  0.00  0.00    +0.000 A 
ATOM      8  C   UNL     1      26.497   0.700  53.087  0.00  0.00    +0.000 A 
ATOM      9  S   UNL     1      25.020  -0.138  53.346  0.00  0.00    +0.000 S 
ATOM     10  C   UNL     1      24.066   1.236  52.949  0.00  0.00    +0.000 A 
ATOM     11  H   UNL     1      22.031  -0.328  53.852  0.00  0.00    +0.000 HD
ENDROOT
BRANCH   1  14
ATOM     12  C   UNL     1      18.992   0.699  50.699  0.00  0.00    +0.000 A 
ATOM     13  C   UNL     1      20.235   0.810  51.333  0.00  0.00    +0.000 A 
ATOM     14  C   UNL     1      20.503   0.205  52.566  0.00  0.00    +0.000 A 
ATOM     15  C   UNL     1      19.508  -0.566  53.163  0.00  0.00    +0.000 A 
ATOM     16  C   UNL     1      18.240  -0.662  52.573  0.00  0.00    +0.000 A 
ATOM     17  C   UNL     1      17.981  -0.055  51.321  0.00  0.00    +0.000 A 
BRANCH  12  19
ATOM     18  C   UNL     1      18.627   2.789  49.618  0.00  0.00    +0.000 C 
ATOM     19  O   UNL     1      18.707   1.370  49.537  0.00  0.00    +0.000 OA
ENDBRANCH  12  19
BRANCH  16  20
ATOM     20  O   UNL     1      17.210  -1.377  53.144  0.00  0.00    +0.000 OA
ATOM     21  C   UNL     1      17.525  -2.718  53.504  0.00  0.00    +0.000 C 
ENDBRANCH  16  20
BRANCH  17  22
ATOM     22  O   UNL     1      16.702  -0.223  50.842  0.00  0.00    +0.000 OA
ATOM     23  C   UNL     1      15.766   0.809  51.129  0.00  0.00    +0.000 C 
ENDBRANCH  17  22
ENDBRANCH   1  14
BRANCH   8  24
ATOM     24  C   UNL     1      27.777   0.066  53.291  0.00  0.00    +0.000 A 
ATOM     25  C   UNL     1      28.112  -1.261  53.089  0.00  0.00    +0.000 A 
ATOM     26  C   UNL     1      29.472  -1.541  53.414  0.00  0.00    +0.000 A 
ATOM     27  C   UNL     1      30.139  -0.422  53.854  0.00  0.00    +0.000 A 
ATOM     28  S   UNL     1      29.133   0.958  53.862  0.00  0.00    +0.000 S 
ENDBRANCH   8  24
TORSDOF 5
ENDMDL
MODEL 4
REMARK VINA RESULT:    -7.471      4.218      9.117
REMARK INTER + INTRA:          -9.810
REMARK INTER:                  -9.395
REMARK INTRA:                  -0.415
REMARK UNBOUND:                -0.156
REMARK  Name = 
REMARK  8 active torsions:
REMARK  status: ('A' for Active; 'I' for Inactive)
REMARK    1  A    between atoms: C_1  and  O_2
REMARK    2  A    between atoms: O_2  and  C_3
REMARK    3  A    between atoms: C_5  and  N_6
REMARK    4  A    between atoms: C_13  and  C_14
REMARK    5  A    between atoms: C_22  and  O_23
REMARK    6  A    between atoms: O_23  and  C_24
REMARK    7  A    between atoms: C_25  and  O_26
REMARK    8  A    between atoms: O_26  and  C_27
REMARK                            x       y       z     vdW  Elec       q    Type
REMARK                         _______ _______ _______ _____ _____    ______ ____
ROOT
ATOM      1  N   UNL     1      21.904  -0.103  52.299  0.00  0.00    +0.000 N 
ATOM      2  C   UNL     1      21.211   0.430  51.190  0.00  0.00    +0.000 A 
ATOM      3  N   UNL     1      21.915   0.964  50.159  0.00  0.00    +0.000 NA
ATOM      4  C   UNL     1      21.264   1.513  49.129  0.00  0.00    +0.000 A 
ATOM      5  N   UNL     1      19.944   1.601  48.968  0.00  0.00    +0.000 NA
ATOM      6  C   UNL     1      19.232   1.053  49.977  0.00  0.00    +0.000 A 
ATOM      7  C   UNL     1      17.808   1.021  50.033  0.00  0.00    +0.000 A 
ATOM      8  C   UNL     1      17.325   0.409  51.171  0.00  0.00    +0.000 A 
ATOM      9  S   UNL     1      18.614  -0.107  52.182  0.00  0.00    +0.000 S 
ATOM     10  C   UNL     1      19.817   0.461  51.093  0.00  0.00    +0.000 A 
ATOM     11  H   UNL     1      21.496  -0.862  52.776  0.00  0.00    +0.000 HD
ENDROOT
BRANCH   1  14
ATOM     12  C   UNL     1      24.597   2.271  53.355  0.00  0.00    +0.000 A 
ATOM     13  C   UNL     1      23.376   1.757  52.903  0.00  0.00    +0.000 A 
ATOM     14  C   UNL     1      23.147   0.383  52.768  0.00  0.00    +0.000 A 
ATOM     15  C   UNL     1      24.157  -0.503  53.134  0.00  0.00    +0.000 A 
ATOM     16  C   UNL     1      25.405  -0.018  53.552  0.00  0.00    +0.000 A 
ATOM     17  C   UNL     1      25.625   1.372  53.694  0.00  0.00    +0.000 A 
BRANCH  12  19
ATOM     18  C   UNL     1      23.792   4.482  52.984  0.00  0.00    +0.000 C 
ATOM     19  O   UNL     1      24.847   3.619  53.395  0.00  0.00    +0.000 OA
ENDBRANCH  12  19
BRANCH  16  20
ATOM     20  O   UNL     1      26.450  -0.852  53.884  0.00  0.00    +0.000 OA
ATOM     21  C   UNL     1      27.002  -1.596  52.803  0.00  0.00    +0.000 C 
ENDBRANCH  16  20
BRANCH  17  22
ATOM     22  O   UNL     1      26.887   1.727  54.115  0.00  0.00    +0.000 OA
ATOM     23  C   UNL     1      27.822   2.094  53.108  0.00  0.00    +0.000 C 
ENDBRANCH  17  22
ENDBRANCH   1  14
BRANCH   8  24
ATOM     24  C   UNL     1      15.944   0.189  51.527  0.00  0.00    +0.000 A 
ATOM     25  C   UNL     1      15.438  -0.268  52.730  0.00  0.00    +0.000 A 
ATOM     26  C   UNL     1      14.016  -0.384  52.721  0.00  0.00    +0.000 A 
ATOM     27  C   UNL     1      13.476  -0.012  51.512  0.00  0.00    +0.000 A 
ATOM     28  S   UNL     1      14.676   0.486  50.403  0.00  0.00    +0.000 S 
ENDBRANCH   8  24
TORSDOF 5
ENDMDL
MODEL 5
REMARK VINA RESULT:    -7.450      5.670      9.169
REMARK INTER + INTRA:          -9.784
REMARK INTER:                  -9.301
REMARK INTRA:                  -0.482
REMARK UNBOUND:                -0.156
REMARK  Name = 
REMARK  8 active torsions:
REMARK  status: ('A' for Active; 'I' for Inactive)
REMARK    1  A    between atoms: C_1  and  O_2
REMARK    2  A    between atoms: O_2  and  C_3
REMARK    3  A    between atoms: C_5  and  N_6
REMARK    4  A    between atoms: C_13  and  C_14
REMARK    5  A    between atoms: C_22  and  O_23
REMARK    6  A    between atoms: O_23  and  C_24
REMARK    7  A    between atoms: C_25  and  O_26
REMARK    8  A    between atoms: O_26  and  C_27
REMARK                            x       y       z     vdW  Elec       q    Type
REMARK                         _______ _______ _______ _____ _____    ______ ____
ROOT
ATOM      1  N   UNL     1      25.711   3.788  49.670  0.00  0.00    +0.000 N 
ATOM      2  C   UNL     1      24.338   3.497  49.522  0.00  0.00    +0.000 A 
ATOM      3  N   UNL     1      23.633   4.099  48.529  0.00  0.00    +0.000 NA
ATOM      4  C   UNL     1      22.322   3.865  48.414  0.00  0.00    +0.000 A 
ATOM      5  N   UNL     1      21.578   3.069  49.182  0.00  0.00    +0.000 NA
ATOM      6  C   UNL     1      22.272   2.448  50.160  0.00  0.00    +0.000 A 
ATOM      7  C   UNL     1      21.700   1.547  51.105  0.00  0.00    +0.000 A 
ATOM      8  C   UNL     1      22.620   1.050  52.004  0.00  0.00    +0.000 A 
ATOM      9  S   UNL     1      24.181   1.703  51.706  0.00  0.00    +0.000 S 
ATOM     10  C   UNL     1      23.637   2.627  50.363  0.00  0.00    +0.000 A 
ATOM     11  H   UNL     1      26.298   3.077  50.016  0.00  0.00    +0.000 HD
ENDROOT
BRANCH   1  14
ATOM     12  C   UNL     1      26.269   7.483  49.479  0.00  0.00    +0.000 A 
ATOM     13  C   UNL     1      25.719   6.233  49.783  0.00  0.00    +0.000 A 
ATOM     14  C   UNL     1      26.300   5.035  49.353  0.00  0.00    +0.000 A 
ATOM     15  C   UNL     1      27.488   5.089  48.629  0.00  0.00    +0.000 A 
ATOM     16  C   UNL     1      28.042   6.328  48.274  0.00  0.00    +0.000 A 
ATOM     17  C   UNL     1      27.453   7.534  48.721  0.00  0.00    +0.000 A 
BRANCH  12  19
ATOM     18  C   UNL     1      24.343   8.871  49.290  0.00  0.00    +0.000 C 
ATOM     19  O   UNL     1      25.645   8.655  49.823  0.00  0.00    +0.000 OA
ENDBRANCH  12  19
BRANCH  16  20
ATOM     20  O   UNL     1      29.192   6.436  47.523  0.00  0.00    +0.000 OA
ATOM     21  C   UNL     1      30.358   5.864  48.108  0.00  0.00    +0.000 C 
ENDBRANCH  16  20
BRANCH  17  22
ATOM     22  O   UNL     1      28.089   8.684  48.312  0.00  0.00    +0.000 OA
ATOM     23  C   UNL     1      28.913   9.339  49.268  0.00  0.00    +0.000 C 
ENDBRANCH  17  22
ENDBRANCH   1  14
BRANCH   8  24
ATOM     24  C   UNL     1      22.381   0.105  53.068  0.00  0.00    +0.000 A 
ATOM     25  C   UNL     1      21.166  -0.368  53.529  0.00  0.00    +0.000 A 
ATOM     26  C   UNL     1      21.306  -1.282  54.614  0.00  0.00    +0.000 A 
ATOM     27  C   UNL     1      22.624  -1.483  54.952  0.00  0.00    +0.000 A 
ATOM     28  S   UNL     1      23.682  -0.585  53.957  0.00  0.00    +0.000 S 
ENDBRANCH   8  24
TORSDOF 5
ENDMDL
MODEL 6
REMARK VINA RESULT:    -7.367      1.530      1.701
REMARK INTER + INTRA:          -9.676
REMARK INTER:                  -9.436
REMARK INTRA:                  -0.240
REMARK UNBOUND:                -0.156
REMARK  Name = 
REMARK  8 active torsions:
REMARK  status: ('A' for Active; 'I' for Inactive)
REMARK    1  A    between atoms: C_1  and  O_2
REMARK    2  A    between atoms: O_2  and  C_3
REMARK    3  A    between atoms: C_5  and  N_6
REMARK    4  A    between atoms: C_13  and  C_14
REMARK    5  A    between atoms: C_22  and  O_23
REMARK    6  A    between atoms: O_23  and  C_24
REMARK    7  A    between atoms: C_25  and  O_26
REMARK    8  A    between atoms: O_26  and  C_27
REMARK                            x       y       z     vdW  Elec       q    Type
REMARK                         _______ _______ _______ _____ _____    ______ ____
ROOT
ATOM      1  N   UNL     1      21.921   1.819  52.845  0.00  0.00    +0.000 N 
ATOM      2  C   UNL     1      22.979   2.305  52.046  0.00  0.00    +0.000 A 
ATOM      3  N   UNL     1      22.730   3.279  51.133  0.00  0.00    +0.000 NA
ATOM      4  C   UNL     1      23.717   3.710  50.341  0.00  0.00    +0.000 A 
ATOM      5  N   UNL     1      24.983   3.293  50.336  0.00  0.00    +0.000 NA
ATOM      6  C   UNL     1      25.248   2.339  51.255  0.00  0.00    +0.000 A 
ATOM      7  C   UNL     1      26.526   1.738  51.445  0.00  0.00    +0.000 A 
ATOM      8  C   UNL     1      26.533   0.787  52.445  0.00  0.00    +0.000 A 
ATOM      9  S   UNL     1      24.971   0.615  53.136  0.00  0.00    +0.000 S 
ATOM     10  C   UNL     1      24.289   1.824  52.123  0.00  0.00    +0.000 A 
ATOM     11  H   UNL     1      22.135   1.511  53.755  0.00  0.00    +0.000 HD
ENDROOT
BRANCH   1  14
ATOM     12  C   UNL     1      18.577   0.409  51.933  0.00  0.00    +0.000 A 
ATOM     13  C   UNL     1      19.906   0.518  52.357  0.00  0.00    +0.000 A 
ATOM     14  C   UNL     1      20.573   1.746  52.421  0.00  0.00    +0.000 A 
ATOM     15  C   UNL     1      19.875   2.905  52.089  0.00  0.00    +0.000 A 
ATOM     16  C   UNL     1      18.555   2.824  51.622  0.00  0.00    +0.000 A 
ATOM     17  C   UNL     1      17.886   1.579  51.569  0.00  0.00    +0.000 A 
BRANCH  12  19
ATOM     18  C   UNL     1      17.646  -1.520  52.974  0.00  0.00    +0.000 C 
ATOM     19  O   UNL     1      17.959  -0.806  51.783  0.00  0.00    +0.000 OA
ENDBRANCH  12  19
BRANCH  16  20
ATOM     20  O   UNL     1      17.836   3.936  51.241  0.00  0.00    +0.000 OA
ATOM     21  C   UNL     1      18.250   4.538  50.019  0.00  0.00    +0.000 C 
ENDBRANCH  16  20
BRANCH  17  22
ATOM     22  O   UNL     1      16.593   1.628  51.098  0.00  0.00    +0.000 OA
ATOM     23  C   UNL     1      15.553   1.498  52.059  0.00  0.00    +0.000 C 
ENDBRANCH  17  22
ENDBRANCH   1  14
BRANCH   8  24
ATOM     24  C   UNL     1      27.660   0.011  52.906  0.00  0.00    +0.000 A 
ATOM     25  C   UNL     1      27.839  -1.358  52.827  0.00  0.00    +0.000 A 
ATOM     26  C   UNL     1      29.070  -1.786  53.405  0.00  0.00    +0.000 A 
ATOM     27  C   UNL     1      29.797  -0.733  53.909  0.00  0.00    +0.000 A 
ATOM     28  S   UNL     1      29.004   0.761  53.673  0.00  0.00    +0.000 S 
ENDBRANCH   8  24
TORSDOF 5
ENDMDL
MODEL 7
REMARK VINA RESULT:    -7.321      5.845      9.374
REMARK INTER + INTRA:          -9.617
REMARK INTER:                  -9.310
REMARK INTRA:                  -0.307
REMARK UNBOUND:                -0.156
REMARK  Name = 
REMARK  8 active torsions:
REMARK  status: ('A' for Active; 'I' for Inactive)
REMARK    1  A    between atoms: C_1  and  O_2
REMARK    2  A    between atoms: O_2  and  C_3
REMARK    3  A    between atoms: C_5  and  N_6
REMARK    4  A    between atoms: C_13  and  C_14
REMARK    5  A    between atoms: C_22  and  O_23
REMARK    6  A    between atoms: O_23  and  C_24
REMARK    7  A    between atoms: C_25  and  O_26
REMARK    8  A    between atoms: O_26  and  C_27
REMARK                            x       y       z     vdW  Elec       q    Type
REMARK                         _______ _______ _______ _____ _____    ______ ____
ROOT
ATOM      1  N   UNL     1      25.889   3.999  49.588  0.00  0.00    +0.000 N 
ATOM      2  C   UNL     1      24.489   3.818  49.547  0.00  0.00    +0.000 A 
ATOM      3  N   UNL     1      23.756   4.500  48.629  0.00  0.00    +0.000 NA
ATOM      4  C   UNL     1      22.426   4.370  48.616  0.00  0.00    +0.000 A 
ATOM      5  N   UNL     1      21.686   3.612  49.425  0.00  0.00    +0.000 NA
ATOM      6  C   UNL     1      22.405   2.912  50.330  0.00  0.00    +0.000 A 
ATOM      7  C   UNL     1      21.841   2.032  51.299  0.00  0.00    +0.000 A 
ATOM      8  C   UNL     1      22.789   1.441  52.108  0.00  0.00    +0.000 A 
ATOM      9  S   UNL     1      24.367   1.981  51.697  0.00  0.00    +0.000 S 
ATOM     10  C   UNL     1      23.792   2.981  50.424  0.00  0.00    +0.000 A 
ATOM     11  H   UNL     1      26.444   3.235  49.869  0.00  0.00    +0.000 HD
ENDROOT
BRANCH   1  14
ATOM     12  C   UNL     1      28.423   6.368  48.184  0.00  0.00    +0.000 A 
ATOM     13  C   UNL     1      27.742   5.193  48.526  0.00  0.00    +0.000 A 
ATOM     14  C   UNL     1      26.545   5.205  49.251  0.00  0.00    +0.000 A 
ATOM     15  C   UNL     1      25.993   6.433  49.610  0.00  0.00    +0.000 A 
ATOM     16  C   UNL     1      26.671   7.625  49.317  0.00  0.00    +0.000 A 
ATOM     17  C   UNL     1      27.876   7.603  48.576  0.00  0.00    +0.000 A 
BRANCH  12  19
ATOM     18  C   UNL     1      30.512   5.265  47.880  0.00  0.00    +0.000 C 
ATOM     19  O   UNL     1      29.642   6.345  47.556  0.00  0.00    +0.000 OA
ENDBRANCH  12  19
BRANCH  16  20
ATOM     20  O   UNL     1      26.189   8.861  49.687  0.00  0.00    +0.000 OA
ATOM     21  C   UNL     1      24.971   9.253  49.061  0.00  0.00    +0.000 C 
ENDBRANCH  16  20
BRANCH  17  22
ATOM     22  O   UNL     1      28.446   8.835  48.348  0.00  0.00    +0.000 OA
ATOM     23  C   UNL     1      29.475   9.244  49.240  0.00  0.00    +0.000 C 
ENDBRANCH  17  22
ENDBRANCH   1  14
BRANCH   8  24
ATOM     24  C   UNL     1      22.563   0.488  53.168  0.00  0.00    +0.000 A 
ATOM     25  C   UNL     1      21.379   0.218  53.831  0.00  0.00    +0.000 A 
ATOM     26  C   UNL     1      21.529  -0.777  54.842  0.00  0.00    +0.000 A 
ATOM     27  C   UNL     1      22.821  -1.240  54.922  0.00  0.00    +0.000 A 
ATOM     28  S   UNL     1      23.841  -0.488  53.778  0.00  0.00    +0.000 S 
ENDBRANCH   8  24
TORSDOF 5
ENDMDL
MODEL 8
REMARK VINA RESULT:    -7.187      5.238      8.810
REMARK INTER + INTRA:          -9.444
REMARK INTER:                  -8.878
REMARK INTRA:                  -0.566
REMARK UNBOUND:                -0.156
REMARK  Name = 
REMARK  8 active torsions:
REMARK  status: ('A' for Active; 'I' for Inactive)
REMARK    1  A    between atoms: C_1  and  O_2
REMARK    2  A    between atoms: O_2  and  C_3
REMARK    3  A    between atoms: C_5  and  N_6
REMARK    4  A    between atoms: C_13  and  C_14
REMARK    5  A    between atoms: C_22  and  O_23
REMARK    6  A    between atoms: O_23  and  C_24
REMARK    7  A    between atoms: C_25  and  O_26
REMARK    8  A    between atoms: O_26  and  C_27
REMARK                            x       y       z     vdW  Elec       q    Type
REMARK                         _______ _______ _______ _____ _____    ______ ____
ROOT
ATOM      1  N   UNL     1      22.933   2.973  51.944  0.00  0.00    +0.000 N 
ATOM      2  C   UNL     1      22.648   3.153  50.574  0.00  0.00    +0.000 A 
ATOM      3  N   UNL     1      22.766   2.100  49.725  0.00  0.00    +0.000 NA
ATOM      4  C   UNL     1      22.543   2.275  48.418  0.00  0.00    +0.000 A 
ATOM      5  N   UNL     1      22.193   3.408  47.809  0.00  0.00    +0.000 NA
ATOM      6  C   UNL     1      22.051   4.459  48.646  0.00  0.00    +0.000 A 
ATOM      7  C   UNL     1      21.681   5.772  48.234  0.00  0.00    +0.000 A 
ATOM      8  C   UNL     1      21.609   6.667  49.281  0.00  0.00    +0.000 A 
ATOM      9  S   UNL     1      22.015   5.906  50.766  0.00  0.00    +0.000 S 
ATOM     10  C   UNL     1      22.262   4.377  50.019  0.00  0.00    +0.000 A 
ATOM     11  H   UNL     1      22.433   3.517  52.595  0.00  0.00    +0.000 HD
ENDROOT
BRANCH   1  14
ATOM     12  C   UNL     1      26.235   1.396  52.732  0.00  0.00    +0.000 A 
ATOM     13  C   UNL     1      25.261   2.283  52.259  0.00  0.00    +0.000 A 
ATOM     14  C   UNL     1      23.892   2.060  52.444  0.00  0.00    +0.000 A 
ATOM     15  C   UNL     1      23.488   0.933  53.156  0.00  0.00    +0.000 A 
ATOM     16  C   UNL     1      24.438   0.005  53.607  0.00  0.00    +0.000 A 
ATOM     17  C   UNL     1      25.820   0.244  53.424  0.00  0.00    +0.000 A 
BRANCH  12  19
ATOM     18  C   UNL     1      28.322   2.309  53.424  0.00  0.00    +0.000 C 
ATOM     19  O   UNL     1      27.568   1.573  52.467  0.00  0.00    +0.000 OA
ENDBRANCH  12  19
BRANCH  16  20
ATOM     20  O   UNL     1      24.087  -1.146  54.279  0.00  0.00    +0.000 OA
ATOM     21  C   UNL     1      22.825  -1.106  54.937  0.00  0.00    +0.000 C 
ENDBRANCH  16  20
BRANCH  17  22
ATOM     22  O   UNL     1      26.654  -0.736  53.913  0.00  0.00    +0.000 OA
ATOM     23  C   UNL     1      27.224  -1.629  52.964  0.00  0.00    +0.000 C 
ENDBRANCH  17  22
ENDBRANCH   1  14
BRANCH   8  24
ATOM     24  C   UNL     1      21.243   8.061  49.216  0.00  0.00    +0.000 A 
ATOM     25  C   UNL     1      21.986   9.114  48.712  0.00  0.00    +0.000 A 
ATOM     26  C   UNL     1      21.315  10.367  48.828  0.00  0.00    +0.000 A 
ATOM     27  C   UNL     1      20.078  10.237  49.416  0.00  0.00    +0.000 A 
ATOM     28  S   UNL     1      19.726   8.614  49.811  0.00  0.00    +0.000 S 
ENDBRANCH   8  24
TORSDOF 5
ENDMDL
MODEL 9
REMARK VINA RESULT:    -7.140      3.361      5.392
REMARK INTER + INTRA:          -9.383
REMARK INTER:                  -9.153
REMARK INTRA:                  -0.229
REMARK UNBOUND:                -0.156
REMARK  Name = 
REMARK  8 active torsions:
REMARK  status: ('A' for Active; 'I' for Inactive)
REMARK    1  A    between atoms: C_1  and  O_2
REMARK    2  A    between atoms: O_2  and  C_3
REMARK    3  A    between atoms: C_5  and  N_6
REMARK    4  A    between atoms: C_13  and  C_14
REMARK    5  A    between atoms: C_22  and  O_23
REMARK    6  A    between atoms: O_23  and  C_24
REMARK    7  A    between atoms: C_25  and  O_26
REMARK    8  A    between atoms: O_26  and  C_27
REMARK                            x       y       z     vdW  Elec       q    Type
REMARK                         _______ _______ _______ _____ _____    ______ ____
ROOT
ATOM      1  N   UNL     1      23.475   3.114  50.579  0.00  0.00    +0.000 N 
ATOM      2  C   UNL     1      23.230   2.086  51.516  0.00  0.00    +0.000 A 
ATOM      3  N   UNL     1      21.959   1.860  51.938  0.00  0.00    +0.000 NA
ATOM      4  C   UNL     1      21.726   0.921  52.860  0.00  0.00    +0.000 A 
ATOM      5  N   UNL     1      22.625   0.129  53.445  0.00  0.00    +0.000 NA
ATOM      6  C   UNL     1      23.891   0.329  53.017  0.00  0.00    +0.000 A 
ATOM      7  C   UNL     1      25.024  -0.395  53.489  0.00  0.00    +0.000 A 
ATOM      8  C   UNL     1      26.205   0.003  52.897  0.00  0.00    +0.000 A 
ATOM      9  S   UNL     1      25.930   1.278  51.779  0.00  0.00    +0.000 S 
ATOM     10  C   UNL     1      24.235   1.283  52.063  0.00  0.00    +0.000 A 
ATOM     11  H   UNL     1      24.218   2.991  49.945  0.00  0.00    +0.000 HD
ENDROOT
BRANCH   1  14
ATOM     12  C   UNL     1      20.594   5.441  50.043  0.00  0.00    +0.000 A 
ATOM     13  C   UNL     1      21.366   4.278  50.146  0.00  0.00    +0.000 A 
ATOM     14  C   UNL     1      22.721   4.308  50.493  0.00  0.00    +0.000 A 
ATOM     15  C   UNL     1      23.311   5.536  50.781  0.00  0.00    +0.000 A 
ATOM     16  C   UNL     1      22.575   6.722  50.647  0.00  0.00    +0.000 A 
ATOM     17  C   UNL     1      21.203   6.681  50.305  0.00  0.00    +0.000 A 
BRANCH  12  19
ATOM     18  C   UNL     1      18.400   4.555  50.317  0.00  0.00    +0.000 C 
ATOM     19  O   UNL     1      19.292   5.412  49.613  0.00  0.00    +0.000 OA
ENDBRANCH  12  19
BRANCH  16  20
ATOM     20  O   UNL     1      23.124   7.964  50.878  0.00  0.00    +0.000 OA
ATOM     21  C   UNL     1      24.455   8.140  50.405  0.00  0.00    +0.000 C 
ENDBRANCH  16  20
BRANCH  17  22
ATOM     22  O   UNL     1      20.586   7.908  50.207  0.00  0.00    +0.000 OA
ATOM     23  C   UNL     1      20.482   8.474  48.907  0.00  0.00    +0.000 C 
ENDBRANCH  17  22
ENDBRANCH   1  14
BRANCH   8  24
ATOM     24  C   UNL     1      27.524  -0.535  53.128  0.00  0.00    +0.000 A 
ATOM     25  C   UNL     1      27.958  -1.834  52.938  0.00  0.00    +0.000 A 
ATOM     26  C   UNL     1      29.328  -2.015  53.290  0.00  0.00    +0.000 A 
ATOM     27  C   UNL     1      29.903  -0.848  53.738  0.00  0.00    +0.000 A 
ATOM     28  S   UNL     1      28.800   0.455  53.721  0.00  0.00    +0.000 S 
ENDBRANCH   8  24
TORSDOF 5
ENDMDL
