REMARK  Name = 
REMARK  14 active torsions:
REMARK  status: ('A' for Active; 'I' for Inactive)
REMARK    1  A    between atoms: C_1  and  C_2
REMARK    2  A    between atoms: C_2  and  O_3
REMARK    3  A    between atoms: O_3  and  C_4
REMARK    4  A    between atoms: C_9  and  C_10
REMARK    5  A    between atoms: C_12  and  N_13
REMARK    6  A    between atoms: N_13  and  C_14
REMARK    7  A    between atoms: C_17  and  C_18
REMARK    8  A    between atoms: C_18  and  N_19
REMARK    9  A    between atoms: C_29  and  N_30
REMARK   10  A    between atoms: C_31  and  C_33
REMARK   11  A    between atoms: C_34  and  C_35
REMARK   12  A    between atoms: C_35  and  N_36
REMARK   13  A    between atoms: N_36  and  C_37
REMARK   14  A    between atoms: N_36  and  C_38
REMARK                            x       y       z     vdW  Elec       q    Type
REMARK                         _______ _______ _______ _____ _____    ______ ____
ROOT
ATOM      1  C   UNL     1       2.425   0.911   1.919  0.00  0.00    +0.000 A 
ATOM      2  C   UNL     1       2.965   1.564   3.059  0.00  0.00    +0.000 A 
ATOM      3  C   UNL     1       4.239   2.124   3.089  0.00  0.00    +0.000 A 
ATOM      4  N   UNL     1       4.639   2.815   4.175  0.00  0.00    +0.000 NA
ATOM      5  C   UNL     1       5.909   3.284   4.223  0.00  0.00    +0.000 A 
ATOM      6  C   UNL     1       6.852   3.038   3.245  0.00  0.00    +0.000 A 
ATOM      7  C   UNL     1       6.455   2.332   2.092  0.00  0.00    +0.000 A 
ATOM      8  C   UNL     1       5.078   1.921   1.967  0.00  0.00    +0.000 A 
ATOM      9  C   UNL     1       4.458   1.397   0.803  0.00  0.00    +0.000 A 
ATOM     10  C   UNL     1       3.099   1.067   0.715  0.00  0.00    +0.000 A 
ENDROOT
BRANCH  10  11
ATOM     11  N   UNL     1       2.403   1.088  -0.544  0.00  0.00    +0.000 N 
ATOM     12  C   UNL     1       2.912   1.582  -1.754  0.00  0.00    +0.000 C 
ATOM     13  O   UNL     1       4.068   1.945  -1.951  0.00  0.00    +0.000 OA
ATOM     14  H   UNL     1       1.489   0.722  -0.558  0.00  0.00    +0.000 HD
BRANCH  12  15
ATOM     15  C   UNL     1       1.882   1.757  -2.848  0.00  0.00    +0.000 C 
ATOM     16  C   UNL     1       2.222   2.185  -4.087  0.00  0.00    +0.000 C 
BRANCH  16  17
ATOM     17  C   UNL     1       1.306   2.639  -5.227  0.00  0.00    +0.000 C 
BRANCH  17  18
ATOM     18  N   UNL     1       0.043   3.299  -4.819  0.00  0.00    +0.000 N 
ATOM     19  C   UNL     1       0.337   4.545  -4.103  0.00  0.00    +0.000 C 
ATOM     20  C   UNL     1      -0.811   3.645  -5.974  0.00  0.00    +0.000 C 
ATOM     21  H   UNL     1      -0.452   2.633  -4.226  0.00  0.00    +0.000 HD
ENDBRANCH  17  18
ENDBRANCH  16  17
ENDBRANCH  12  15
ENDBRANCH  10  11
BRANCH   6  22
ATOM     22  C   UNL     1       8.202   3.478   3.473  0.00  0.00    +0.000 C 
ATOM     23  N   UNL     1       9.299   3.785   3.636  0.00  0.00    +0.000 NA
ENDBRANCH   6  22
BRANCH   7  24
ATOM     24  N   UNL     1       7.410   2.136   1.037  0.00  0.00    +0.000 N 
ATOM     25  H   UNL     1       8.008   2.899   0.866  0.00  0.00    +0.000 HD
BRANCH  24  26
ATOM     26  C   UNL     1       7.620   1.010   0.206  0.00  0.00    +0.000 A 
ATOM     27  C   UNL     1       7.200  -0.272   0.558  0.00  0.00    +0.000 A 
ATOM     28  C   UNL     1       7.500  -1.370  -0.250  0.00  0.00    +0.000 A 
ATOM     29  C   UNL     1       8.243  -1.219  -1.432  0.00  0.00    +0.000 A 
ATOM     30  C   UNL     1       8.634   0.077  -1.804  0.00  0.00    +0.000 A 
ATOM     31 CL   UNL     1       9.552   0.372  -3.238  0.00  0.00    +0.000 Cl
ATOM     32  C   UNL     1       8.328   1.176  -0.991  0.00  0.00    +0.000 A 
BRANCH  29  33
ATOM     33  C   UNL     1       8.623  -2.453  -2.216  0.00  0.00    +0.000 C 
BRANCH  33  34
ATOM     34  N   UNL     1       7.654  -2.807  -3.239  0.00  0.00    +0.000 N 
ATOM     35  C   UNL     1       7.896  -2.895  -4.583  0.00  0.00    +0.000 A 
ATOM     36  C   UNL     1       6.720  -3.355  -5.128  0.00  0.00    +0.000 A 
ATOM     37  N   UNL     1       5.790  -3.591  -4.149  0.00  0.00    +0.000 NA
ATOM     38  C   UNL     1       6.385  -3.268  -3.023  0.00  0.00    +0.000 A 
ENDBRANCH  33  34
ENDBRANCH  29  33
ENDBRANCH  24  26
ENDBRANCH   7  24
BRANCH   1  39
ATOM     39  O   UNL     1       1.280   0.230   2.186  0.00  0.00    +0.000 OA
BRANCH  39  41
ATOM     40  C   UNL     1       1.616  -2.046   1.050  0.00  0.00    +0.000 C 
ATOM     41  C   UNL     1       0.754  -0.827   1.379  0.00  0.00    +0.000 C 
ENDBRANCH  39  41
ENDBRANCH   1  39
TORSDOF 11
