MODEL 1
REMARK VINA RESULT:    -9.306      0.000      0.000
REMARK INTER + INTRA:         -12.089
REMARK INTER:                 -11.482
REMARK INTRA:                  -0.607
REMARK UNBOUND:                -0.607
REMARK  Name = 
REMARK  4 active torsions:
REMARK  status: ('A' for Active; 'I' for Inactive)
REMARK    1  A    between atoms: C_2  and  C_3
REMARK    2  A    between atoms: C_3  and  N_4
REMARK    3  A    between atoms: C_9  and  N_10
REMARK    4  A    between atoms: N_10  and  C_11
REMARK                            x       y       z     vdW  Elec       q    Type
REMARK                         _______ _______ _______ _____ _____    ______ ____
ROOT
ATOM      1  N   UNL     1      25.174   2.319  52.369  0.00  0.00    +0.000 N 
ATOM      2  C   UNL     1      24.195   3.080  51.590  0.00  0.00    +0.000 C 
ATOM      3  C   UNL     1      23.191   2.173  52.209  0.00  0.00    +0.000 A 
ATOM      4  C   UNL     1      21.890   1.764  52.327  0.00  0.00    +0.000 A 
ATOM      5  C   UNL     1      21.648   0.557  53.041  0.00  0.00    +0.000 A 
ATOM      6  C   UNL     1      20.382  -0.042  53.192  0.00  0.00    +0.000 A 
ATOM      7  N   UNL     1      20.208  -1.173  53.899  0.00  0.00    +0.000 NA
ATOM      8  C   UNL     1      21.299  -1.726  54.445  0.00  0.00    +0.000 A 
ATOM      9  N   UNL     1      22.546  -1.265  54.350  0.00  0.00    +0.000 NA
ATOM     10  C   UNL     1      22.721  -0.140  53.658  0.00  0.00    +0.000 A 
ATOM     11  C   UNL     1      24.018   0.346  53.537  0.00  0.00    +0.000 A 
ATOM     12  C   UNL     1      24.198   1.485  52.818  0.00  0.00    +0.000 A 
ENDROOT
BRANCH   6  13
ATOM     13  N   UNL     1      19.265   0.543  52.551  0.00  0.00    +0.000 N 
ATOM     14  H   UNL     1      19.176   1.517  52.663  0.00  0.00    +0.000 HD
BRANCH  13  15
ATOM     15  C   UNL     1      18.263  -0.072  51.773  0.00  0.00    +0.000 A 
ATOM     16  C   UNL     1      18.094   0.332  50.439  0.00  0.00    +0.000 A 
ATOM     17  C   UNL     1      16.986  -0.084  49.692  0.00  0.00    +0.000 A 
ATOM     18  C   UNL     1      16.024  -0.906  50.273  0.00  0.00    +0.000 A 
ATOM     19  C   UNL     1      16.191  -1.331  51.587  0.00  0.00    +0.000 A 
ATOM     20 BR   UNL     1      14.880  -2.428  52.395  0.00  0.00    +0.000 Br
ATOM     21  C   UNL     1      17.297  -0.919  52.331  0.00  0.00    +0.000 A 
ENDBRANCH  13  15
ENDBRANCH   6  13
BRANCH   1  22
ATOM     22  C   UNL     1      26.287   1.629  51.703  0.00  0.00    +0.000 C 
BRANCH  22  24
ATOM     23  O   UNL     1      28.238   2.555  52.739  0.00  0.00    +0.000 OA
ATOM     24  C   UNL     1      27.532   1.552  52.594  0.00  0.00    +0.000 C 
ATOM     25  N   UNL     1      27.864   0.345  53.186  0.00  0.00    +0.000 N 
ATOM     26  C   UNL     1      29.011   0.269  54.092  0.00  0.00    +0.000 C 
ATOM     27  C   UNL     1      29.895  -0.933  53.740  0.00  0.00    +0.000 C 
ATOM     28  O   UNL     1      29.129  -2.149  53.715  0.00  0.00    +0.000 OA
ATOM     29  C   UNL     1      28.067  -2.064  52.751  0.00  0.00    +0.000 C 
ATOM     30  C   UNL     1      27.111  -0.910  53.077  0.00  0.00    +0.000 C 
ENDBRANCH  22  24
ENDBRANCH   1  22
TORSDOF 4
ENDMDL
MODEL 2
REMARK VINA RESULT:    -9.293      4.212      7.679
REMARK INTER + INTRA:         -12.073
REMARK INTER:                 -10.985
REMARK INTRA:                  -1.088
REMARK UNBOUND:                -0.607
REMARK  Name = 
REMARK  4 active torsions:
REMARK  status: ('A' for Active; 'I' for Inactive)
REMARK    1  A    between atoms: C_2  and  C_3
REMARK    2  A    between atoms: C_3  and  N_4
REMARK    3  A    between atoms: C_9  and  N_10
REMARK    4  A    between atoms: N_10  and  C_11
REMARK                            x       y       z     vdW  Elec       q    Type
REMARK                         _______ _______ _______ _____ _____    ______ ____
ROOT
ATOM      1  N   UNL     1      20.335   2.890  50.292  0.00  0.00    +0.000 N 
ATOM      2  C   UNL     1      21.658   2.802  49.670  0.00  0.00    +0.000 C 
ATOM      3  C   UNL     1      21.956   1.820  50.748  0.00  0.00    +0.000 A 
ATOM      4  C   UNL     1      22.848   0.985  51.363  0.00  0.00    +0.000 A 
ATOM      5  C   UNL     1      22.466   0.434  52.619  0.00  0.00    +0.000 A 
ATOM      6  C   UNL     1      23.291  -0.381  53.418  0.00  0.00    +0.000 A 
ATOM      7  N   UNL     1      22.868  -0.895  54.587  0.00  0.00    +0.000 NA
ATOM      8  C   UNL     1      21.626  -0.583  54.978  0.00  0.00    +0.000 A 
ATOM      9  N   UNL     1      20.766   0.195  54.319  0.00  0.00    +0.000 NA
ATOM     10  C   UNL     1      21.178   0.698  53.157  0.00  0.00    +0.000 A 
ATOM     11  C   UNL     1      20.299   1.524  52.465  0.00  0.00    +0.000 A 
ATOM     12  C   UNL     1      20.726   2.049  51.287  0.00  0.00    +0.000 A 
ENDROOT
BRANCH   6  13
ATOM     13  N   UNL     1      24.616  -0.639  52.996  0.00  0.00    +0.000 N 
ATOM     14  H   UNL     1      24.719  -1.375  52.351  0.00  0.00    +0.000 HD
BRANCH  13  15
ATOM     15  C   UNL     1      25.811   0.011  53.370  0.00  0.00    +0.000 A 
ATOM     16  C   UNL     1      25.812   1.410  53.497  0.00  0.00    +0.000 A 
ATOM     17  C   UNL     1      27.007   2.120  53.652  0.00  0.00    +0.000 A 
ATOM     18  C   UNL     1      28.223   1.442  53.673  0.00  0.00    +0.000 A 
ATOM     19  C   UNL     1      28.233   0.054  53.570  0.00  0.00    +0.000 A 
ATOM     20 BR   UNL     1      29.878  -0.878  53.575  0.00  0.00    +0.000 Br
ATOM     21  C   UNL     1      27.041  -0.655  53.420  0.00  0.00    +0.000 A 
ENDBRANCH  13  15
ENDBRANCH   6  13
BRANCH   1  22
ATOM     22  C   UNL     1      19.817   4.179  50.770  0.00  0.00    +0.000 C 
BRANCH  22  24
ATOM     23  O   UNL     1      20.457   5.922  49.256  0.00  0.00    +0.000 OA
ATOM     24  C   UNL     1      20.697   5.354  50.327  0.00  0.00    +0.000 C 
ATOM     25  N   UNL     1      21.771   5.727  51.116  0.00  0.00    +0.000 N 
ATOM     26  C   UNL     1      22.582   6.887  50.742  0.00  0.00    +0.000 C 
ATOM     27  C   UNL     1      24.074   6.547  50.818  0.00  0.00    +0.000 C 
ATOM     28  O   UNL     1      24.422   6.024  52.111  0.00  0.00    +0.000 OA
ATOM     29  C   UNL     1      23.666   4.836  52.401  0.00  0.00    +0.000 C 
ATOM     30  C   UNL     1      22.159   5.121  52.395  0.00  0.00    +0.000 C 
ENDBRANCH  22  24
ENDBRANCH   1  22
TORSDOF 4
ENDMDL
MODEL 3
REMARK VINA RESULT:    -9.086      5.038      9.862
REMARK INTER + INTRA:         -11.818
REMARK INTER:                 -11.152
REMARK INTRA:                  -0.666
REMARK UNBOUND:                -0.607
REMARK  Name = 
REMARK  4 active torsions:
REMARK  status: ('A' for Active; 'I' for Inactive)
REMARK    1  A    between atoms: C_2  and  C_3
REMARK    2  A    between atoms: C_3  and  N_4
REMARK    3  A    between atoms: C_9  and  N_10
REMARK    4  A    between atoms: N_10  and  C_11
REMARK                            x       y       z     vdW  Elec       q    Type
REMARK                         _______ _______ _______ _____ _____    ______ ____
ROOT
ATOM      1  N   UNL     1      18.787   0.423  51.164  0.00  0.00    +0.000 N 
ATOM      2  C   UNL     1      19.767   1.037  50.266  0.00  0.00    +0.000 C 
ATOM      3  C   UNL     1      20.780   0.495  51.210  0.00  0.00    +0.000 A 
ATOM      4  C   UNL     1      22.091   0.365  51.581  0.00  0.00    +0.000 A 
ATOM      5  C   UNL     1      22.353  -0.190  52.866  0.00  0.00    +0.000 A 
ATOM      6  C   UNL     1      23.636  -0.324  53.432  0.00  0.00    +0.000 A 
ATOM      7  N   UNL     1      23.827  -0.879  54.642  0.00  0.00    +0.000 NA
ATOM      8  C   UNL     1      22.738  -1.285  55.306  0.00  0.00    +0.000 A 
ATOM      9  N   UNL     1      21.476  -1.189  54.884  0.00  0.00    +0.000 NA
ATOM     10  C   UNL     1      21.284  -0.648  53.682  0.00  0.00    +0.000 A 
ATOM     11  C   UNL     1      19.974  -0.525  53.234  0.00  0.00    +0.000 A 
ATOM     12  C   UNL     1      19.777   0.040  52.013  0.00  0.00    +0.000 A 
ENDROOT
BRANCH   6  13
ATOM     13  N   UNL     1      24.754   0.171  52.721  0.00  0.00    +0.000 N 
ATOM     14  H   UNL     1      24.610   0.326  51.760  0.00  0.00    +0.000 HD
BRANCH  13  15
ATOM     15  C   UNL     1      26.047   0.473  53.196  0.00  0.00    +0.000 A 
ATOM     16  C   UNL     1      26.388   1.815  53.431  0.00  0.00    +0.000 A 
ATOM     17  C   UNL     1      27.711   2.190  53.692  0.00  0.00    +0.000 A 
ATOM     18  C   UNL     1      28.716   1.226  53.715  0.00  0.00    +0.000 A 
ATOM     19  C   UNL     1      28.387  -0.110  53.507  0.00  0.00    +0.000 A 
ATOM     20 BR   UNL     1      29.745  -1.425  53.513  0.00  0.00    +0.000 Br
ATOM     21  C   UNL     1      27.068  -0.484  53.249  0.00  0.00    +0.000 A 
ENDBRANCH  13  15
ENDBRANCH   6  13
BRANCH   1  22
ATOM     22  C   UNL     1      17.739   1.234  51.796  0.00  0.00    +0.000 C 
BRANCH  22  24
ATOM     23  O   UNL     1      16.466  -0.793  51.890  0.00  0.00    +0.000 OA
ATOM     24  C   UNL     1      16.451   0.435  52.025  0.00  0.00    +0.000 C 
ATOM     25  N   UNL     1      15.284   1.112  52.338  0.00  0.00    +0.000 N 
ATOM     26  C   UNL     1      14.061   0.360  52.625  0.00  0.00    +0.000 C 
ATOM     27  C   UNL     1      12.876   0.946  51.849  0.00  0.00    +0.000 C 
ATOM     28  O   UNL     1      12.733   2.353  52.105  0.00  0.00    +0.000 OA
ATOM     29  C   UNL     1      13.924   3.064  51.729  0.00  0.00    +0.000 C 
ATOM     30  C   UNL     1      15.143   2.562  52.512  0.00  0.00    +0.000 C 
ENDBRANCH  22  24
ENDBRANCH   1  22
TORSDOF 4
ENDMDL
MODEL 4
REMARK VINA RESULT:    -8.778      5.858      9.107
REMARK INTER + INTRA:         -11.438
REMARK INTER:                 -10.781
REMARK INTRA:                  -0.658
REMARK UNBOUND:                -0.607
REMARK  Name = 
REMARK  4 active torsions:
REMARK  status: ('A' for Active; 'I' for Inactive)
REMARK    1  A    between atoms: C_2  and  C_3
REMARK    2  A    between atoms: C_3  and  N_4
REMARK    3  A    between atoms: C_9  and  N_10
REMARK    4  A    between atoms: N_10  and  C_11
REMARK                            x       y       z     vdW  Elec       q    Type
REMARK                         _______ _______ _______ _____ _____    ______ ____
ROOT
ATOM      1  N   UNL     1      26.702   6.130  48.532  0.00  0.00    +0.000 N 
ATOM      2  C   UNL     1      27.723   5.081  48.569  0.00  0.00    +0.000 C 
ATOM      3  C   UNL     1      26.738   4.331  49.393  0.00  0.00    +0.000 A 
ATOM      4  C   UNL     1      26.421   3.217  50.121  0.00  0.00    +0.000 A 
ATOM      5  C   UNL     1      25.228   3.263  50.898  0.00  0.00    +0.000 A 
ATOM      6  C   UNL     1      24.795   2.236  51.759  0.00  0.00    +0.000 A 
ATOM      7  N   UNL     1      23.646   2.324  52.451  0.00  0.00    +0.000 NA
ATOM      8  C   UNL     1      22.929   3.445  52.306  0.00  0.00    +0.000 A 
ATOM      9  N   UNL     1      23.249   4.490  51.541  0.00  0.00    +0.000 NA
ATOM     10  C   UNL     1      24.382   4.403  50.847  0.00  0.00    +0.000 A 
ATOM     11  C   UNL     1      24.738   5.490  50.057  0.00  0.00    +0.000 A 
ATOM     12  C   UNL     1      25.903   5.407  49.361  0.00  0.00    +0.000 A 
ENDROOT
BRANCH   6  13
ATOM     13  N   UNL     1      25.611   1.092  51.928  0.00  0.00    +0.000 N 
ATOM     14  H   UNL     1      25.336   0.298  51.415  0.00  0.00    +0.000 HD
BRANCH  13  15
ATOM     15  C   UNL     1      26.762   0.932  52.726  0.00  0.00    +0.000 A 
ATOM     16  C   UNL     1      27.343   2.066  53.317  0.00  0.00    +0.000 A 
ATOM     17  C   UNL     1      28.597   1.997  53.934  0.00  0.00    +0.000 A 
ATOM     18  C   UNL     1      29.294   0.792  53.962  0.00  0.00    +0.000 A 
ATOM     19  C   UNL     1      28.719  -0.344  53.400  0.00  0.00    +0.000 A 
ATOM     20 BR   UNL     1      29.664  -1.982  53.412  0.00  0.00    +0.000 Br
ATOM     21  C   UNL     1      27.467  -0.276  52.788  0.00  0.00    +0.000 A 
ENDBRANCH  13  15
ENDBRANCH   6  13
BRANCH   1  22
ATOM     22  C   UNL     1      27.001   7.482  49.022  0.00  0.00    +0.000 C 
BRANCH  22  24
ATOM     23  O   UNL     1      26.758   8.743  47.000  0.00  0.00    +0.000 OA
ATOM     24  C   UNL     1      27.522   8.397  47.907  0.00  0.00    +0.000 C 
ATOM     25  N   UNL     1      28.851   8.783  47.918  0.00  0.00    +0.000 N 
ATOM     26  C   UNL     1      29.349   9.709  46.899  0.00  0.00    +0.000 C 
ATOM     27  C   UNL     1      30.659   9.190  46.296  0.00  0.00    +0.000 C 
ATOM     28  O   UNL     1      31.631   8.922  47.321  0.00  0.00    +0.000 OA
ATOM     29  C   UNL     1      31.135   7.944  48.250  0.00  0.00    +0.000 C 
ATOM     30  C   UNL     1      29.849   8.426  48.932  0.00  0.00    +0.000 C 
ENDBRANCH  22  24
ENDBRANCH   1  22
TORSDOF 4
ENDMDL
MODEL 5
REMARK VINA RESULT:    -8.732      4.843      9.564
REMARK INTER + INTRA:         -11.381
REMARK INTER:                 -10.884
REMARK INTRA:                  -0.497
REMARK UNBOUND:                -0.607
REMARK  Name = 
REMARK  4 active torsions:
REMARK  status: ('A' for Active; 'I' for Inactive)
REMARK    1  A    between atoms: C_2  and  C_3
REMARK    2  A    between atoms: C_3  and  N_4
REMARK    3  A    between atoms: C_9  and  N_10
REMARK    4  A    between atoms: N_10  and  C_11
REMARK                            x       y       z     vdW  Elec       q    Type
REMARK                         _______ _______ _______ _____ _____    ______ ____
ROOT
ATOM      1  N   UNL     1      18.669   0.232  51.180  0.00  0.00    +0.000 N 
ATOM      2  C   UNL     1      19.609   0.930  50.301  0.00  0.00    +0.000 C 
ATOM      3  C   UNL     1      20.654   0.430  51.235  0.00  0.00    +0.000 A 
ATOM      4  C   UNL     1      21.970   0.374  51.606  0.00  0.00    +0.000 A 
ATOM      5  C   UNL     1      22.265  -0.196  52.877  0.00  0.00    +0.000 A 
ATOM      6  C   UNL     1      23.553  -0.264  53.443  0.00  0.00    +0.000 A 
ATOM      7  N   UNL     1      23.776  -0.836  54.640  0.00  0.00    +0.000 NA
ATOM      8  C   UNL     1      22.714  -1.328  55.290  0.00  0.00    +0.000 A 
ATOM      9  N   UNL     1      21.450  -1.300  54.867  0.00  0.00    +0.000 NA
ATOM     10  C   UNL     1      21.226  -0.742  53.678  0.00  0.00    +0.000 A 
ATOM     11  C   UNL     1      19.911  -0.691  53.229  0.00  0.00    +0.000 A 
ATOM     12  C   UNL     1      19.681  -0.108  52.023  0.00  0.00    +0.000 A 
ENDROOT
BRANCH   6  13
ATOM     13  N   UNL     1      24.638   0.319  52.749  0.00  0.00    +0.000 N 
ATOM     14  H   UNL     1      24.399   1.020  52.100  0.00  0.00    +0.000 HD
BRANCH  13  15
ATOM     15  C   UNL     1      26.016   0.037  52.856  0.00  0.00    +0.000 A 
ATOM     16  C   UNL     1      26.451  -1.291  52.714  0.00  0.00    +0.000 A 
ATOM     17  C   UNL     1      27.765  -1.658  53.023  0.00  0.00    +0.000 A 
ATOM     18  C   UNL     1      28.665  -0.702  53.486  0.00  0.00    +0.000 A 
ATOM     19  C   UNL     1      28.252   0.622  53.609  0.00  0.00    +0.000 A 
ATOM     20 BR   UNL     1      29.457   1.926  54.259  0.00  0.00    +0.000 Br
ATOM     21  C   UNL     1      26.942   0.989  53.298  0.00  0.00    +0.000 A 
ENDBRANCH  13  15
ENDBRANCH   6  13
BRANCH   1  22
ATOM     22  C   UNL     1      17.571   0.960  51.830  0.00  0.00    +0.000 C 
BRANCH  22  24
ATOM     23  O   UNL     1      15.993  -0.274  53.142  0.00  0.00    +0.000 OA
ATOM     24  C   UNL     1      16.326   0.083  52.008  0.00  0.00    +0.000 C 
ATOM     25  N   UNL     1      15.622  -0.325  50.887  0.00  0.00    +0.000 N 
ATOM     26  C   UNL     1      14.394  -1.106  51.043  0.00  0.00    +0.000 C 
ATOM     27  C   UNL     1      14.407  -2.319  50.106  0.00  0.00    +0.000 C 
ATOM     28  O   UNL     1      14.639  -1.920  48.745  0.00  0.00    +0.000 OA
ATOM     29  C   UNL     1      15.895  -1.234  48.622  0.00  0.00    +0.000 C 
ATOM     30  C   UNL     1      15.929   0.026  49.496  0.00  0.00    +0.000 C 
ENDBRANCH  22  24
ENDBRANCH   1  22
TORSDOF 4
ENDMDL
MODEL 6
REMARK VINA RESULT:    -8.519      3.714      5.629
REMARK INTER + INTRA:         -11.119
REMARK INTER:                 -10.314
REMARK INTRA:                  -0.805
REMARK UNBOUND:                -0.607
REMARK  Name = 
REMARK  4 active torsions:
REMARK  status: ('A' for Active; 'I' for Inactive)
REMARK    1  A    between atoms: C_2  and  C_3
REMARK    2  A    between atoms: C_3  and  N_4
REMARK    3  A    between atoms: C_9  and  N_10
REMARK    4  A    between atoms: N_10  and  C_11
REMARK                            x       y       z     vdW  Elec       q    Type
REMARK                         _______ _______ _______ _____ _____    ______ ____
ROOT
ATOM      1  N   UNL     1      25.182   4.964  50.409  0.00  0.00    +0.000 N 
ATOM      2  C   UNL     1      23.791   5.230  50.780  0.00  0.00    +0.000 C 
ATOM      3  C   UNL     1      23.875   3.938  51.513  0.00  0.00    +0.000 A 
ATOM      4  C   UNL     1      23.268   2.977  52.275  0.00  0.00    +0.000 A 
ATOM      5  C   UNL     1      23.980   1.760  52.478  0.00  0.00    +0.000 A 
ATOM      6  C   UNL     1      23.472   0.644  53.170  0.00  0.00    +0.000 A 
ATOM      7  N   UNL     1      24.199  -0.473  53.353  0.00  0.00    +0.000 NA
ATOM      8  C   UNL     1      25.431  -0.493  52.828  0.00  0.00    +0.000 A 
ATOM      9  N   UNL     1      26.007   0.490  52.135  0.00  0.00    +0.000 NA
ATOM     10  C   UNL     1      25.293   1.602  51.960  0.00  0.00    +0.000 A 
ATOM     11  C   UNL     1      25.873   2.630  51.226  0.00  0.00    +0.000 A 
ATOM     12  C   UNL     1      25.138   3.758  51.035  0.00  0.00    +0.000 A 
ENDROOT
BRANCH   6  13
ATOM     13  N   UNL     1      22.145   0.685  53.659  0.00  0.00    +0.000 N 
ATOM     14  H   UNL     1      22.038   1.071  54.558  0.00  0.00    +0.000 HD
BRANCH  13  15
ATOM     15  C   UNL     1      20.956   0.251  53.039  0.00  0.00    +0.000 A 
ATOM     16  C   UNL     1      20.395   1.038  52.020  0.00  0.00    +0.000 A 
ATOM     17  C   UNL     1      19.114   0.772  51.523  0.00  0.00    +0.000 A 
ATOM     18  C   UNL     1      18.369  -0.282  52.046  0.00  0.00    +0.000 A 
ATOM     19  C   UNL     1      18.923  -1.083  53.040  0.00  0.00    +0.000 A 
ATOM     20 BR   UNL     1      17.915  -2.504  53.774  0.00  0.00    +0.000 Br
ATOM     21  C   UNL     1      20.202  -0.820  53.533  0.00  0.00    +0.000 A 
ENDBRANCH  13  15
ENDBRANCH   6  13
BRANCH   1  22
ATOM     22  C   UNL     1      25.579   4.889  48.997  0.00  0.00    +0.000 C 
BRANCH  22  24
ATOM     23  O   UNL     1      27.935   4.459  48.957  0.00  0.00    +0.000 OA
ATOM     24  C   UNL     1      27.042   5.295  48.787  0.00  0.00    +0.000 C 
ATOM     25  N   UNL     1      27.337   6.606  48.452  0.00  0.00    +0.000 N 
ATOM     26  C   UNL     1      28.722   6.995  48.183  0.00  0.00    +0.000 C 
ATOM     27  C   UNL     1      29.075   8.282  48.939  0.00  0.00    +0.000 C 
ATOM     28  O   UNL     1      28.138   9.331  48.641  0.00  0.00    +0.000 OA
ATOM     29  C   UNL     1      26.803   8.940  49.001  0.00  0.00    +0.000 C 
ATOM     30  C   UNL     1      26.366   7.685  48.235  0.00  0.00    +0.000 C 
ENDBRANCH  22  24
ENDBRANCH   1  22
TORSDOF 4
ENDMDL
MODEL 7
REMARK VINA RESULT:    -8.488      2.555      4.451
REMARK INTER + INTRA:         -11.080
REMARK INTER:                 -10.279
REMARK INTRA:                  -0.800
REMARK UNBOUND:                -0.607
REMARK  Name = 
REMARK  4 active torsions:
REMARK  status: ('A' for Active; 'I' for Inactive)
REMARK    1  A    between atoms: C_2  and  C_3
REMARK    2  A    between atoms: C_3  and  N_4
REMARK    3  A    between atoms: C_9  and  N_10
REMARK    4  A    between atoms: N_10  and  C_11
REMARK                            x       y       z     vdW  Elec       q    Type
REMARK                         _______ _______ _______ _____ _____    ______ ____
ROOT
ATOM      1  N   UNL     1      24.016   0.580  52.687  0.00  0.00    +0.000 N 
ATOM      2  C   UNL     1      23.549  -0.071  53.912  0.00  0.00    +0.000 C 
ATOM      3  C   UNL     1      22.229  -0.122  53.228  0.00  0.00    +0.000 A 
ATOM      4  C   UNL     1      20.901  -0.450  53.258  0.00  0.00    +0.000 A 
ATOM      5  C   UNL     1      20.088   0.024  52.189  0.00  0.00    +0.000 A 
ATOM      6  C   UNL     1      18.694  -0.158  52.104  0.00  0.00    +0.000 A 
ATOM      7  N   UNL     1      17.979   0.291  51.058  0.00  0.00    +0.000 NA
ATOM      8  C   UNL     1      18.645   0.944  50.097  0.00  0.00    +0.000 A 
ATOM      9  N   UNL     1      19.955   1.196  50.080  0.00  0.00    +0.000 NA
ATOM     10  C   UNL     1      20.668   0.744  51.111  0.00  0.00    +0.000 A 
ATOM     11  C   UNL     1      22.032   1.013  51.116  0.00  0.00    +0.000 A 
ATOM     12  C   UNL     1      22.756   0.565  52.176  0.00  0.00    +0.000 A 
ENDROOT
BRANCH   6  13
ATOM     13  N   UNL     1      18.020  -0.802  53.168  0.00  0.00    +0.000 N 
ATOM     14  H   UNL     1      18.141  -0.392  54.055  0.00  0.00    +0.000 HD
BRANCH  13  15
ATOM     15  C   UNL     1      17.199  -1.948  53.136  0.00  0.00    +0.000 A 
ATOM     16  C   UNL     1      17.684  -3.147  53.684  0.00  0.00    +0.000 A 
ATOM     17  C   UNL     1      17.009  -4.357  53.489  0.00  0.00    +0.000 A 
ATOM     18  C   UNL     1      15.839  -4.387  52.733  0.00  0.00    +0.000 A 
ATOM     19  C   UNL     1      15.337  -3.202  52.204  0.00  0.00    +0.000 A 
ATOM     20 BR   UNL     1      13.762  -3.233  51.157  0.00  0.00    +0.000 Br
ATOM     21  C   UNL     1      16.008  -1.996  52.401  0.00  0.00    +0.000 A 
ENDBRANCH  13  15
ENDBRANCH   6  13
BRANCH   1  22
ATOM     22  C   UNL     1      24.625   1.916  52.734  0.00  0.00    +0.000 C 
BRANCH  22  24
ATOM     23  O   UNL     1      26.688   1.431  51.618  0.00  0.00    +0.000 OA
ATOM     24  C   UNL     1      25.661   2.117  51.622  0.00  0.00    +0.000 C 
ATOM     25  N   UNL     1      25.442   3.095  50.666  0.00  0.00    +0.000 N 
ATOM     26  C   UNL     1      26.387   3.255  49.560  0.00  0.00    +0.000 C 
ATOM     27  C   UNL     1      26.756   4.732  49.379  0.00  0.00    +0.000 C 
ATOM     28  O   UNL     1      25.581   5.545  49.224  0.00  0.00    +0.000 OA
ATOM     29  C   UNL     1      24.722   5.424  50.370  0.00  0.00    +0.000 C 
ATOM     30  C   UNL     1      24.271   3.973  50.577  0.00  0.00    +0.000 C 
ENDBRANCH  22  24
ENDBRANCH   1  22
TORSDOF 4
ENDMDL
MODEL 8
REMARK VINA RESULT:    -8.408      2.362      2.960
REMARK INTER + INTRA:         -10.981
REMARK INTER:                 -10.012
REMARK INTRA:                  -0.970
REMARK UNBOUND:                -0.607
REMARK  Name = 
REMARK  4 active torsions:
REMARK  status: ('A' for Active; 'I' for Inactive)
REMARK    1  A    between atoms: C_2  and  C_3
REMARK    2  A    between atoms: C_3  and  N_4
REMARK    3  A    between atoms: C_9  and  N_10
REMARK    4  A    between atoms: N_10  and  C_11
REMARK                            x       y       z     vdW  Elec       q    Type
REMARK                         _______ _______ _______ _____ _____    ______ ____
ROOT
ATOM      1  N   UNL     1      22.473   2.254  52.025  0.00  0.00    +0.000 N 
ATOM      2  C   UNL     1      21.514   2.893  51.122  0.00  0.00    +0.000 C 
ATOM      3  C   UNL     1      20.538   1.914  51.673  0.00  0.00    +0.000 A 
ATOM      4  C   UNL     1      19.276   1.386  51.677  0.00  0.00    +0.000 A 
ATOM      5  C   UNL     1      19.073   0.184  52.412  0.00  0.00    +0.000 A 
ATOM      6  C   UNL     1      17.859  -0.529  52.459  0.00  0.00    +0.000 A 
ATOM      7  N   UNL     1      17.718  -1.648  53.191  0.00  0.00    +0.000 NA
ATOM      8  C   UNL     1      18.792  -2.077  53.865  0.00  0.00    +0.000 A 
ATOM      9  N   UNL     1      19.995  -1.501  53.877  0.00  0.00    +0.000 NA
ATOM     10  C   UNL     1      20.136  -0.387  53.161  0.00  0.00    +0.000 A 
ATOM     11  C   UNL     1      21.388   0.217  53.151  0.00  0.00    +0.000 A 
ATOM     12  C   UNL     1      21.536   1.345  52.407  0.00  0.00    +0.000 A 
ENDROOT
BRANCH   6  13
ATOM     13  N   UNL     1      16.766  -0.073  51.686  0.00  0.00    +0.000 N 
ATOM     14  H   UNL     1      16.787  -0.322  50.734  0.00  0.00    +0.000 HD
BRANCH  13  15
ATOM     15  C   UNL     1      15.648   0.688  52.089  0.00  0.00    +0.000 A 
ATOM     16  C   UNL     1      15.651   2.074  51.860  0.00  0.00    +0.000 A 
ATOM     17  C   UNL     1      14.676   2.902  52.427  0.00  0.00    +0.000 A 
ATOM     18  C   UNL     1      13.686   2.356  53.240  0.00  0.00    +0.000 A 
ATOM     19  C   UNL     1      13.659   0.982  53.456  0.00  0.00    +0.000 A 
ATOM     20 BR   UNL     1      12.334   0.231  54.576  0.00  0.00    +0.000 Br
ATOM     21  C   UNL     1      14.629   0.155  52.888  0.00  0.00    +0.000 A 
ENDBRANCH  13  15
ENDBRANCH   6  13
BRANCH   1  22
ATOM     22  C   UNL     1      23.708   1.654  51.502  0.00  0.00    +0.000 C 
BRANCH  22  24
ATOM     23  O   UNL     1      25.357   3.214  52.266  0.00  0.00    +0.000 OA
ATOM     24  C   UNL     1      24.936   2.054  52.327  0.00  0.00    +0.000 C 
ATOM     25  N   UNL     1      25.576   1.094  53.093  0.00  0.00    +0.000 N 
ATOM     26  C   UNL     1      26.710   1.474  53.938  0.00  0.00    +0.000 C 
ATOM     27  C   UNL     1      27.874   0.496  53.745  0.00  0.00    +0.000 C 
ATOM     28  O   UNL     1      27.453  -0.861  53.962  0.00  0.00    +0.000 OA
ATOM     29  C   UNL     1      26.399  -1.219  53.054  0.00  0.00    +0.000 C 
ATOM     30  C   UNL     1      25.177  -0.310  53.234  0.00  0.00    +0.000 C 
ENDBRANCH  22  24
ENDBRANCH   1  22
TORSDOF 4
ENDMDL
MODEL 9
REMARK VINA RESULT:    -8.291      4.937      9.621
REMARK INTER + INTRA:         -10.836
REMARK INTER:                 -10.213
REMARK INTRA:                  -0.623
REMARK UNBOUND:                -0.607
REMARK  Name = 
REMARK  4 active torsions:
REMARK  status: ('A' for Active; 'I' for Inactive)
REMARK    1  A    between atoms: C_2  and  C_3
REMARK    2  A    between atoms: C_3  and  N_4
REMARK    3  A    between atoms: C_9  and  N_10
REMARK    4  A    between atoms: N_10  and  C_11
REMARK                            x       y       z     vdW  Elec       q    Type
REMARK                         _______ _______ _______ _____ _____    ______ ____
ROOT
ATOM      1  N   UNL     1      19.220   1.575  51.038  0.00  0.00    +0.000 N 
ATOM      2  C   UNL     1      20.333   2.016  50.195  0.00  0.00    +0.000 C 
ATOM      3  C   UNL     1      21.183   1.230  51.130  0.00  0.00    +0.000 A 
ATOM      4  C   UNL     1      22.426   0.813  51.521  0.00  0.00    +0.000 A 
ATOM      5  C   UNL     1      22.527   0.153  52.779  0.00  0.00    +0.000 A 
ATOM      6  C   UNL     1      23.736  -0.272  53.363  0.00  0.00    +0.000 A 
ATOM      7  N   UNL     1      23.770  -0.913  54.545  0.00  0.00    +0.000 NA
ATOM      8  C   UNL     1      22.600  -1.117  55.163  0.00  0.00    +0.000 A 
ATOM      9  N   UNL     1      21.399  -0.740  54.720  0.00  0.00    +0.000 NA
ATOM     10  C   UNL     1      21.361  -0.113  53.545  0.00  0.00    +0.000 A 
ATOM     11  C   UNL     1      20.119   0.301  53.077  0.00  0.00    +0.000 A 
ATOM     12  C   UNL     1      20.083   0.954  51.886  0.00  0.00    +0.000 A 
ENDROOT
BRANCH   6  13
ATOM     13  N   UNL     1      24.954   0.015  52.704  0.00  0.00    +0.000 N 
ATOM     14  H   UNL     1      24.929  -0.046  51.721  0.00  0.00    +0.000 HD
BRANCH  13  15
ATOM     15  C   UNL     1      26.200   0.376  53.257  0.00  0.00    +0.000 A 
ATOM     16  C   UNL     1      26.438   1.724  53.575  0.00  0.00    +0.000 A 
ATOM     17  C   UNL     1      27.718   2.171  53.919  0.00  0.00    +0.000 A 
ATOM     18  C   UNL     1      28.785   1.276  53.942  0.00  0.00    +0.000 A 
ATOM     19  C   UNL     1      28.558  -0.066  53.651  0.00  0.00    +0.000 A 
ATOM     20 BR   UNL     1      30.002  -1.287  53.658  0.00  0.00    +0.000 Br
ATOM     21  C   UNL     1      27.281  -0.512  53.311  0.00  0.00    +0.000 A 
ENDBRANCH  13  15
ENDBRANCH   6  13
BRANCH   1  22
ATOM     22  C   UNL     1      18.341   2.554  51.691  0.00  0.00    +0.000 C 
BRANCH  22  24
ATOM     23  O   UNL     1      18.351   4.590  50.429  0.00  0.00    +0.000 OA
ATOM     24  C   UNL     1      17.741   3.548  50.690  0.00  0.00    +0.000 C 
ATOM     25  N   UNL     1      16.505   3.277  50.129  0.00  0.00    +0.000 N 
ATOM     26  C   UNL     1      15.948   4.181  49.122  0.00  0.00    +0.000 C 
ATOM     27  C   UNL     1      14.486   4.510  49.446  0.00  0.00    +0.000 C 
ATOM     28  O   UNL     1      13.708   3.312  49.604  0.00  0.00    +0.000 OA
ATOM     29  C   UNL     1      14.238   2.495  50.660  0.00  0.00    +0.000 C 
ATOM     30  C   UNL     1      15.686   2.083  50.371  0.00  0.00    +0.000 C 
ENDBRANCH  22  24
ENDBRANCH   1  22
TORSDOF 4
ENDMDL
