
     RDKit          3D

 54 58  0  0  0  0  0  0  0  0999 V2000
   -6.4611   -0.9713   -1.7962 N   0  0  0  0  0  0  0  0  0  0  0  0
   -5.0154   -1.0475   -1.9946 C   0  0  0  0  0  0  0  0  0  0  0  0
   -4.3251    0.1532   -1.3507 C   0  0  0  0  0  0  0  0  0  0  0  0
   -4.4575    0.0786    0.0536 O   0  0  0  0  0  0  0  0  0  0  0  0
   -3.9801    1.2700    0.6390 C   0  0  0  0  0  0  0  0  0  0  0  0
   -3.8553    1.0757    2.1188 C   0  0  0  0  0  0  0  0  0  0  0  0
   -4.7728    1.5129    3.0703 C   0  0  0  0  0  0  0  0  0  0  0  0
   -4.2573    1.1863    4.3160 C   0  0  0  0  0  0  0  0  0  0  0  0
   -3.0811    0.5656    4.1410 N   0  0  0  0  0  0  0  0  0  0  0  0
   -2.2487    0.1321    5.0838 N   0  0  0  0  0  0  0  0  0  0  0  0
   -1.0742   -0.4430    4.7066 C   0  0  0  0  0  0  0  0  0  0  0  0
   -0.7738   -0.5668    3.3810 N   0  0  0  0  0  0  0  0  0  0  0  0
   -1.6261   -0.1185    2.4143 C   0  0  0  0  0  0  0  0  0  0  0  0
   -1.3119   -0.3137    1.0312 N   0  0  0  0  0  0  0  0  0  0  0  0
   -0.0428    0.0303    0.4487 C   0  0  0  0  0  0  0  0  0  0  0  0
    0.2825   -0.4620   -0.8429 C   0  0  0  0  0  0  0  0  0  0  0  0
    1.4928   -0.1090   -1.4679 C   0  0  0  0  0  0  0  0  0  0  0  0
    2.3515    0.7468   -0.7785 C   0  0  0  0  0  0  0  0  0  0  0  0
    2.0436    1.2249    0.4612 C   0  0  0  0  0  0  0  0  0  0  0  0
    3.1004    2.0311    0.8249 C   0  0  0  0  0  0  0  0  0  0  0  0
    4.0073    2.0234   -0.1813 N   0  0  0  0  0  0  0  0  0  0  0  0
    3.5426    1.2496   -1.1575 N   0  0  0  0  0  0  0  0  0  0  0  0
    4.2758    0.9734   -2.3908 C   0  0  0  0  0  0  0  0  0  0  0  0
    5.0917   -0.2815   -2.2359 C   0  0  0  0  0  0  0  0  0  0  0  0
    4.7073   -1.4703   -2.8758 C   0  0  0  0  0  0  0  0  0  0  0  0
    5.4647   -2.6332   -2.7085 C   0  0  0  0  0  0  0  0  0  0  0  0
    6.6057   -2.6209   -1.9033 C   0  0  0  0  0  0  0  0  0  0  0  0
    6.9998   -1.4391   -1.2702 C   0  0  0  0  0  0  0  0  0  0  0  0
    8.1142   -1.4243   -0.4962 F   0  0  0  0  0  0  0  0  0  0  0  0
    6.2458   -0.2730   -1.4355 C   0  0  0  0  0  0  0  0  0  0  0  0
    0.8591    0.8986    1.1118 C   0  0  0  0  0  0  0  0  0  0  0  0
   -2.8239    0.4741    2.8298 C   0  0  0  0  0  0  0  0  0  0  0  0
   -6.6657   -1.1797   -0.7918 H   0  0  0  0  0  0  0  0  0  0  0  0
   -6.9030   -1.7414   -2.3543 H   0  0  0  0  0  0  0  0  0  0  0  0
   -4.6167   -1.9934   -1.5621 H   0  0  0  0  0  0  0  0  0  0  0  0
   -4.7965   -1.0420   -3.0856 H   0  0  0  0  0  0  0  0  0  0  0  0
   -4.7831    1.0866   -1.7583 H   0  0  0  0  0  0  0  0  0  0  0  0
   -3.2487    0.1242   -1.6310 H   0  0  0  0  0  0  0  0  0  0  0  0
   -2.9874    1.5738    0.2348 H   0  0  0  0  0  0  0  0  0  0  0  0
   -4.6991    2.0962    0.4449 H   0  0  0  0  0  0  0  0  0  0  0  0
   -5.7001    2.0349    2.8788 H   0  0  0  0  0  0  0  0  0  0  0  0
   -4.7046    1.4072    5.2763 H   0  0  0  0  0  0  0  0  0  0  0  0
   -0.3823   -0.8035    5.4553 H   0  0  0  0  0  0  0  0  0  0  0  0
   -2.0310   -0.7708    0.4291 H   0  0  0  0  0  0  0  0  0  0  0  0
   -0.4069   -1.1148   -1.3634 H   0  0  0  0  0  0  0  0  0  0  0  0
    1.7353   -0.4847   -2.4521 H   0  0  0  0  0  0  0  0  0  0  0  0
    3.2094    2.5825    1.7489 H   0  0  0  0  0  0  0  0  0  0  0  0
    3.5672    0.8912   -3.2442 H   0  0  0  0  0  0  0  0  0  0  0  0
    4.9515    1.8262   -2.6189 H   0  0  0  0  0  0  0  0  0  0  0  0
    3.8275   -1.4969   -3.5057 H   0  0  0  0  0  0  0  0  0  0  0  0
    5.1670   -3.5468   -3.2083 H   0  0  0  0  0  0  0  0  0  0  0  0
    7.1907   -3.5232   -1.7780 H   0  0  0  0  0  0  0  0  0  0  0  0
    6.5594    0.6369   -0.9424 H   0  0  0  0  0  0  0  0  0  0  0  0
    0.6390    1.3226    2.0818 H   0  0  0  0  0  0  0  0  0  0  0  0
  1  2  1  0
  2  3  1  0
  3  4  1  0
  4  5  1  0
  5  6  1  0
  6  7  1  0
  7  8  2  0
  8  9  1  0
  9 10  1  0
 10 11  2  0
 11 12  1  0
 12 13  2  0
 13 14  1  0
 14 15  1  0
 15 16  2  0
 16 17  1  0
 17 18  2  0
 18 19  1  0
 19 20  1  0
 20 21  2  0
 21 22  1  0
 22 23  1  0
 23 24  1  0
 24 25  2  0
 25 26  1  0
 26 27  2  0
 27 28  1  0
 28 29  1  0
 28 30  2  0
 19 31  2  0
 13 32  1  0
 32  6  2  0
 32  9  1  0
 31 15  1  0
 22 18  1  0
 30 24  1  0
  1 33  1  0
  1 34  1  0
  2 35  1  0
  2 36  1  0
  3 37  1  0
  3 38  1  0
  5 39  1  0
  5 40  1  0
  7 41  1  0
  8 42  1  0
 11 43  1  0
 14 44  1  0
 16 45  1  0
 17 46  1  0
 20 47  1  0
 23 48  1  0
 23 49  1  0
 25 50  1  0
 26 51  1  0
 27 52  1  0
 30 53  1  0
 31 54  1  0
M  END
