
     RDKit          3D

 74 78  0  0  0  0  0  0  0  0999 V2000
   -5.3275   -0.4129   -4.8001 C   0  0  0  0  0  0  0  0  0  0  0  0
   -4.4844    0.1978   -3.9680 C   0  0  0  0  0  0  0  0  0  0  0  0
   -4.0678   -0.3694   -2.6706 C   0  0  0  0  0  0  0  0  0  0  0  0
   -4.4515   -1.5192   -2.3297 O   0  0  0  0  0  0  0  0  0  0  0  0
   -3.2165    0.3976   -1.8038 N   0  0  0  0  0  0  0  0  0  0  0  0
   -2.6039   -0.1604   -0.6348 C   0  0  0  0  0  0  0  0  0  0  0  0
   -1.2086   -0.1743   -0.5521 C   0  0  0  0  0  0  0  0  0  0  0  0
   -0.5555   -0.7406    0.5482 C   0  0  0  0  0  0  0  0  0  0  0  0
    0.8790   -0.7189    0.5845 N   0  0  0  0  0  0  0  0  0  0  0  0
    1.6149   -0.1743    1.6903 C   0  0  0  0  0  0  0  0  0  0  0  0
    1.0668    0.2073    2.8697 N   0  0  0  0  0  0  0  0  0  0  0  0
    2.0352    0.7191    3.6228 N   0  0  0  0  0  0  0  0  0  0  0  0
    3.1833    0.6821    2.9260 C   0  0  0  0  0  0  0  0  0  0  0  0
    4.4355    1.1536    3.3042 C   0  0  0  0  0  0  0  0  0  0  0  0
    5.4806    1.0552    2.3664 C   0  0  0  0  0  0  0  0  0  0  0  0
    5.2575    0.4949    1.0769 C   0  0  0  0  0  0  0  0  0  0  0  0
    6.3584    0.4489    0.0810 C   0  0  0  0  0  0  0  0  0  0  0  0
    6.1072    0.7393   -1.2727 C   0  0  0  0  0  0  0  0  0  0  0  0
    7.1441    0.7304   -2.2100 C   0  0  0  0  0  0  0  0  0  0  0  0
    8.4534    0.4324   -1.8122 C   0  0  0  0  0  0  0  0  0  0  0  0
    9.5035    0.4361   -2.7434 C   0  0  0  0  0  0  0  0  0  0  0  0
   10.8056    0.1371   -2.3329 C   0  0  0  0  0  0  0  0  0  0  0  0
   11.0683   -0.1699   -0.9954 C   0  0  0  0  0  0  0  0  0  0  0  0
   10.0320   -0.1729   -0.0564 C   0  0  0  0  0  0  0  0  0  0  0  0
    8.7197    0.1290   -0.4548 C   0  0  0  0  0  0  0  0  0  0  0  0
    7.6715    0.1360    0.4797 C   0  0  0  0  0  0  0  0  0  0  0  0
    3.9661    0.0168    0.7416 C   0  0  0  0  0  0  0  0  0  0  0  0
    2.9614    0.1282    1.6983 C   0  0  0  0  0  0  0  0  0  0  0  0
   -1.3090   -1.3447    1.5723 C   0  0  0  0  0  0  0  0  0  0  0  0
   -0.6345   -2.0070    2.6098 O   0  0  0  0  0  0  0  0  0  0  0  0
   -1.2712   -2.6045    3.7335 C   0  0  0  0  0  0  0  0  0  0  0  0
   -2.7156   -1.2833    1.5171 C   0  0  0  0  0  0  0  0  0  0  0  0
   -3.3674   -0.6777    0.4318 C   0  0  0  0  0  0  0  0  0  0  0  0
   -4.7990   -0.5321    0.4578 N   0  0  0  0  0  0  0  0  0  0  0  0
   -5.6238   -1.7392    0.5778 C   0  0  0  0  0  0  0  0  0  0  0  0
   -5.3663    0.7592    0.8757 C   0  0  0  0  0  0  0  0  0  0  0  0
   -6.1706    1.4201   -0.2500 C   0  0  0  0  0  0  0  0  0  0  0  0
   -7.4803    0.7521   -0.4283 N   0  0  0  0  0  0  0  0  0  0  0  0
   -7.8803    0.7692   -1.8436 C   0  0  0  0  0  0  0  0  0  0  0  0
   -8.5202    1.4007    0.3903 C   0  0  0  0  0  0  0  0  0  0  0  0
   -5.7773   -1.3710   -4.5657 H   0  0  0  0  0  0  0  0  0  0  0  0
   -5.7712   -1.3685   -4.5589 H   0  0  0  0  0  0  0  0  0  0  0  0
   -4.0812    1.1557   -4.2653 H   0  0  0  0  0  0  0  0  0  0  0  0
   -2.8326    1.3015   -2.1637 H   0  0  0  0  0  0  0  0  0  0  0  0
   -0.6245    0.2557   -1.3575 H   0  0  0  0  0  0  0  0  0  0  0  0
    1.3901   -0.8738   -0.3119 H   0  0  0  0  0  0  0  0  0  0  0  0
    1.8984    1.1016    4.5842 H   0  0  0  0  0  0  0  0  0  0  0  0
    4.5995    1.6002    4.2780 H   0  0  0  0  0  0  0  0  0  0  0  0
    6.4557    1.4428    2.6346 H   0  0  0  0  0  0  0  0  0  0  0  0
    5.1114    1.0067   -1.6045 H   0  0  0  0  0  0  0  0  0  0  0  0
    6.9202    0.9693   -3.2423 H   0  0  0  0  0  0  0  0  0  0  0  0
    9.3171    0.6690   -3.7859 H   0  0  0  0  0  0  0  0  0  0  0  0
   11.6145    0.1400   -3.0540 H   0  0  0  0  0  0  0  0  0  0  0  0
   12.0785   -0.4019   -0.6823 H   0  0  0  0  0  0  0  0  0  0  0  0
   10.2556   -0.4075    0.9786 H   0  0  0  0  0  0  0  0  0  0  0  0
    7.8795   -0.1095    1.5147 H   0  0  0  0  0  0  0  0  0  0  0  0
    3.7591   -0.4238   -0.2260 H   0  0  0  0  0  0  0  0  0  0  0  0
   -1.8296   -1.8343    4.3059 H   0  0  0  0  0  0  0  0  0  0  0  0
   -1.9589   -3.4112    3.4008 H   0  0  0  0  0  0  0  0  0  0  0  0
   -0.4964   -3.0468    4.3924 H   0  0  0  0  0  0  0  0  0  0  0  0
   -3.3135   -1.6928    2.3206 H   0  0  0  0  0  0  0  0  0  0  0  0
   -5.0899   -2.6169    0.1541 H   0  0  0  0  0  0  0  0  0  0  0  0
   -6.5715   -1.6187    0.0188 H   0  0  0  0  0  0  0  0  0  0  0  0
   -5.8497   -1.9354    1.6474 H   0  0  0  0  0  0  0  0  0  0  0  0
   -4.5536    1.4569    1.1753 H   0  0  0  0  0  0  0  0  0  0  0  0
   -6.0049    0.6160    1.7736 H   0  0  0  0  0  0  0  0  0  0  0  0
   -5.5593    1.3808   -1.1772 H   0  0  0  0  0  0  0  0  0  0  0  0
   -6.3002    2.5049   -0.0187 H   0  0  0  0  0  0  0  0  0  0  0  0
   -7.1711    0.1607   -2.4414 H   0  0  0  0  0  0  0  0  0  0  0  0
   -7.9016    1.8084   -2.2458 H   0  0  0  0  0  0  0  0  0  0  0  0
   -8.8865    0.3080   -1.9688 H   0  0  0  0  0  0  0  0  0  0  0  0
   -8.2059    1.4517    1.4560 H   0  0  0  0  0  0  0  0  0  0  0  0
   -8.7329    2.4355    0.0292 H   0  0  0  0  0  0  0  0  0  0  0  0
   -9.4579    0.8049    0.3525 H   0  0  0  0  0  0  0  0  0  0  0  0
  1  2  2  0
  2  3  1  0
  3  4  2  0
  3  5  1  0
  5  6  1  0
  6  7  2  0
  7  8  1  0
  8  9  1  0
  9 10  1  0
 10 11  2  0
 11 12  1  0
 12 13  1  0
 13 14  2  0
 14 15  1  0
 15 16  2  0
 16 17  1  0
 17 18  2  0
 18 19  1  0
 19 20  2  0
 20 21  1  0
 21 22  2  0
 22 23  1  0
 23 24  2  0
 24 25  1  0
 25 26  2  0
 16 27  1  0
 27 28  2  0
  8 29  2  0
 29 30  1  0
 30 31  1  0
 29 32  1  0
 32 33  2  0
 33 34  1  0
 34 35  1  0
 34 36  1  0
 36 37  1  0
 37 38  1  0
 38 39  1  0
 38 40  1  0
 33  6  1  0
 28 10  1  0
 28 13  1  0
 26 17  1  0
 25 20  1  0
  1 41  1  0
  1 42  1  0
  2 43  1  0
  5 44  1  0
  7 45  1  0
  9 46  1  0
 12 47  1  0
 14 48  1  0
 15 49  1  0
 18 50  1  0
 19 51  1  0
 21 52  1  0
 22 53  1  0
 23 54  1  0
 24 55  1  0
 26 56  1  0
 27 57  1  0
 31 58  1  0
 31 59  1  0
 31 60  1  0
 32 61  1  0
 35 62  1  0
 35 63  1  0
 35 64  1  0
 36 65  1  0
 36 66  1  0
 37 67  1  0
 37 68  1  0
 39 69  1  0
 39 70  1  0
 39 71  1  0
 40 72  1  0
 40 73  1  0
 40 74  1  0
M  END
