REMARK  Name = 
REMARK  2 active torsions:
REMARK  status: ('A' for Active; 'I' for Inactive)
REMARK    1  A    between atoms: C_5  and  O_6
REMARK    2  A    between atoms: O_6  and  C_7
REMARK                            x       y       z     vdW  Elec       q    Type
REMARK                         _______ _______ _______ _____ _____    ______ ____
ROOT
ATOM      1  C   UNL     1      -4.167   2.405   0.078  0.00  0.00    +0.000 A 
ATOM      2  N   UNL     1      -4.850   2.834  -1.004  0.00  0.00    +0.000 NA
ATOM      3  C   UNL     1      -6.169   2.643  -0.964  0.00  0.00    +0.000 A 
ATOM      4  N   UNL     1      -6.851   2.050   0.024  0.00  0.00    +0.000 NA
ATOM      5  C   UNL     1      -6.143   1.599   1.067  0.00  0.00    +0.000 A 
ATOM      6  C   UNL     1      -6.813   0.956   2.100  0.00  0.00    +0.000 A 
ATOM      7  C   UNL     1      -6.142   0.453   3.217  0.00  0.00    +0.000 A 
ATOM      8  C   UNL     1      -4.763   0.602   3.318  0.00  0.00    +0.000 A 
ATOM      9  C   UNL     1      -4.067   1.248   2.298  0.00  0.00    +0.000 A 
ATOM     10  C   UNL     1      -4.755   1.747   1.163  0.00  0.00    +0.000 A 
ENDROOT
BRANCH   1  11
ATOM     11  O   UNL     1      -2.784   2.594   0.112  0.00  0.00    +0.000 OA
BRANCH  11  16
ATOM     12  F   UNL     1      -0.475   6.374  -3.155  0.00  0.00    +0.000 F 
ATOM     13  C   UNL     1      -1.029   5.457  -2.348  0.00  0.00    +0.000 A 
ATOM     14  C   UNL     1      -2.200   5.786  -1.672  0.00  0.00    +0.000 A 
ATOM     15  C   UNL     1      -2.794   4.848  -0.829  0.00  0.00    +0.000 A 
ATOM     16  C   UNL     1      -2.241   3.567  -0.700  0.00  0.00    +0.000 A 
ATOM     17  C   UNL     1      -1.046   3.253  -1.355  0.00  0.00    +0.000 A 
ATOM     18  C   UNL     1      -0.443   4.203  -2.182  0.00  0.00    +0.000 A 
ATOM     19 CL   UNL     1       1.027   3.812  -2.990  0.00  0.00    +0.000 Cl
ENDBRANCH  11  16
ENDBRANCH   1  11
TORSDOF 2
