
     RDKit          3D

 43 44  0  0  0  0  0  0  0  0999 V2000
   -5.0995   -1.8149    0.0824 C   0  0  0  0  0  0  0  0  0  0  0  0
   -5.5544   -0.4513   -0.2447 N   0  0  0  0  0  0  0  0  0  0  0  0
   -6.3814   -0.4933   -1.4618 C   0  0  0  0  0  0  0  0  0  0  0  0
   -4.4038    0.4579   -0.4371 C   0  0  0  0  0  0  0  0  0  0  0  0
   -3.9345    1.0246    0.9093 C   0  0  0  0  0  0  0  0  0  0  0  0
   -2.7622    1.9508    0.7211 C   0  0  0  0  0  0  0  0  0  0  0  0
   -2.9940    3.1892    0.6556 O   0  0  0  0  0  0  0  0  0  0  0  0
   -1.3616    1.4592    0.5781 C   0  0  0  0  0  0  0  0  0  0  0  0
   -0.3070    2.3824    0.4550 C   0  0  0  0  0  0  0  0  0  0  0  0
    1.0129    1.9470    0.3161 C   0  0  0  0  0  0  0  0  0  0  0  0
    1.3106    0.5733    0.2940 C   0  0  0  0  0  0  0  0  0  0  0  0
    2.6213    0.0928    0.1505 O   0  0  0  0  0  0  0  0  0  0  0  0
    3.7740    0.9182    0.0101 C   0  0  0  0  0  0  0  0  0  0  0  0
    4.9866    0.0473   -0.1396 C   0  0  0  0  0  0  0  0  0  0  0  0
    5.3926   -0.3878   -1.4120 C   0  0  0  0  0  0  0  0  0  0  0  0
    6.4993   -1.2320   -1.5471 C   0  0  0  0  0  0  0  0  0  0  0  0
    7.1990   -1.6567   -0.4141 C   0  0  0  0  0  0  0  0  0  0  0  0
    6.7900   -1.2419    0.8564 C   0  0  0  0  0  0  0  0  0  0  0  0
    5.6842   -0.3971    0.9958 C   0  0  0  0  0  0  0  0  0  0  0  0
    0.2688   -0.3541    0.4167 C   0  0  0  0  0  0  0  0  0  0  0  0
    0.5581   -1.7178    0.3951 O   0  0  0  0  0  0  0  0  0  0  0  0
   -1.0555    0.0841    0.5584 C   0  0  0  0  0  0  0  0  0  0  0  0
   -5.9740   -2.4740    0.2701 H   0  0  0  0  0  0  0  0  0  0  0  0
   -4.4934   -2.2492   -0.7439 H   0  0  0  0  0  0  0  0  0  0  0  0
   -4.4927   -1.8150    1.0109 H   0  0  0  0  0  0  0  0  0  0  0  0
   -7.2404   -1.1849   -1.3221 H   0  0  0  0  0  0  0  0  0  0  0  0
   -6.8073    0.5121   -1.6690 H   0  0  0  0  0  0  0  0  0  0  0  0
   -5.7859   -0.8257   -2.3418 H   0  0  0  0  0  0  0  0  0  0  0  0
   -3.5674   -0.0570   -0.9621 H   0  0  0  0  0  0  0  0  0  0  0  0
   -4.6933    1.3269   -1.0722 H   0  0  0  0  0  0  0  0  0  0  0  0
   -4.7754    1.5873    1.3710 H   0  0  0  0  0  0  0  0  0  0  0  0
   -3.6677    0.2198    1.6229 H   0  0  0  0  0  0  0  0  0  0  0  0
   -0.4999    3.4480    0.4687 H   0  0  0  0  0  0  0  0  0  0  0  0
    1.7947    2.6889    0.2263 H   0  0  0  0  0  0  0  0  0  0  0  0
    3.8819    1.5685    0.9058 H   0  0  0  0  0  0  0  0  0  0  0  0
    3.6638    1.5699   -0.8842 H   0  0  0  0  0  0  0  0  0  0  0  0
    4.8525   -0.0748   -2.2973 H   0  0  0  0  0  0  0  0  0  0  0  0
    6.8117   -1.5610   -2.5298 H   0  0  0  0  0  0  0  0  0  0  0  0
    8.0542   -2.3116   -0.5204 H   0  0  0  0  0  0  0  0  0  0  0  0
    7.3274   -1.5783    1.7337 H   0  0  0  0  0  0  0  0  0  0  0  0
    5.3712   -0.0912    1.9865 H   0  0  0  0  0  0  0  0  0  0  0  0
   -0.1708   -2.4172    0.4768 H   0  0  0  0  0  0  0  0  0  0  0  0
   -1.8328   -0.6616    0.6438 H   0  0  0  0  0  0  0  0  0  0  0  0
  1  2  1  0
  2  3  1  0
  2  4  1  0
  4  5  1  0
  5  6  1  0
  6  7  2  0
  6  8  1  0
  8  9  2  0
  9 10  1  0
 10 11  2  0
 11 12  1  0
 12 13  1  0
 13 14  1  0
 14 15  2  0
 15 16  1  0
 16 17  2  0
 17 18  1  0
 18 19  2  0
 11 20  1  0
 20 21  1  0
 20 22  2  0
 22  8  1  0
 19 14  1  0
  1 23  1  0
  1 24  1  0
  1 25  1  0
  3 26  1  0
  3 27  1  0
  3 28  1  0
  4 29  1  0
  4 30  1  0
  5 31  1  0
  5 32  1  0
  9 33  1  0
 10 34  1  0
 13 35  1  0
 13 36  1  0
 15 37  1  0
 16 38  1  0
 17 39  1  0
 18 40  1  0
 19 41  1  0
 21 42  1  0
 22 43  1  0
M  END
