REMARK  Name = 
REMARK  10 active torsions:
REMARK  status: ('A' for Active; 'I' for Inactive)
REMARK    1  A    between atoms: C_1  and  O_2
REMARK    2  A    between atoms: O_2  and  C_3
REMARK    3  A    between atoms: C_9  and  N_10
REMARK    4  A    between atoms: N_10  and  C_11
REMARK    5  A    between atoms: C_21  and  C_22
REMARK    6  A    between atoms: C_22  and  N_23
REMARK    7  A    between atoms: N_23  and  C_24
REMARK    8  A    between atoms: N_23  and  C_25
REMARK    9  A    between atoms: C_25  and  C_26
REMARK   10  A    between atoms: C_25  and  C_27
REMARK                            x       y       z     vdW  Elec       q    Type
REMARK                         _______ _______ _______ _____ _____    ______ ____
ROOT
ATOM      1  C   UNL     1       0.855   2.123   1.235  0.00  0.00    +0.000 A 
ATOM      2  C   UNL     1      -0.168   2.704   1.994  0.00  0.00    +0.000 A 
ATOM      3  C   UNL     1       0.091   3.462   3.119  0.00  0.00    +0.000 A 
ATOM      4  N   UNL     1      -0.951   4.048   3.716  0.00  0.00    +0.000 NA
ATOM      5  C   UNL     1      -0.684   4.792   4.788  0.00  0.00    +0.000 A 
ATOM      6  N   UNL     1       0.518   4.964   5.334  0.00  0.00    +0.000 NA
ATOM      7  C   UNL     1       1.559   4.345   4.737  0.00  0.00    +0.000 A 
ATOM      8  C   UNL     1       1.412   3.582   3.564  0.00  0.00    +0.000 A 
ATOM      9  C   UNL     1       2.454   2.933   2.840  0.00  0.00    +0.000 A 
ATOM     10  C   UNL     1       2.190   2.226   1.653  0.00  0.00    +0.000 A 
ENDROOT
BRANCH   1  12
ATOM     11  C   UNL     1      -0.524   1.878  -0.664  0.00  0.00    +0.000 C 
ATOM     12  O   UNL     1       0.603   1.422   0.083  0.00  0.00    +0.000 OA
ENDBRANCH   1  12
BRANCH   7  13
ATOM     13  N   UNL     1       2.835   4.479   5.337  0.00  0.00    +0.000 N 
ATOM     14  H   UNL     1       3.623   4.376   4.756  0.00  0.00    +0.000 HD
BRANCH  13  15
ATOM     15  C   UNL     1       3.063   4.749   6.709  0.00  0.00    +0.000 A 
ATOM     16  C   UNL     1       2.204   4.256   7.702  0.00  0.00    +0.000 A 
ATOM     17  C   UNL     1       2.461   4.467   9.059  0.00  0.00    +0.000 A 
ATOM     18  C   UNL     1       3.606   5.160   9.445  0.00  0.00    +0.000 A 
ATOM     19  C   UNL     1       4.487   5.633   8.473  0.00  0.00    +0.000 A 
ATOM     20 CL   UNL     1       5.909   6.472   8.968  0.00  0.00    +0.000 Cl
ATOM     21  C   UNL     1       4.221   5.421   7.119  0.00  0.00    +0.000 A 
ATOM     22  F   UNL     1       5.075   5.872   6.182  0.00  0.00    +0.000 F 
ENDBRANCH  13  15
ENDBRANCH   7  13
BRANCH  10  23
ATOM     23  C   UNL     1       3.337   1.667   0.815  0.00  0.00    +0.000 C 
BRANCH  23  24
ATOM     24  N   UNL     1       3.866   0.354   1.250  0.00  0.00    +0.000 N 
ATOM     25  C   UNL     1       2.823  -0.679   1.145  0.00  0.00    +0.000 C 
ATOM     26  H   UNL     1       4.159   0.457   2.221  0.00  0.00    +0.000 HD
BRANCH  24  27
ATOM     27  C   UNL     1       5.062  -0.069   0.437  0.00  0.00    +0.000 C 
ATOM     28  C   UNL     1       4.847  -0.215  -1.074  0.00  0.00    +0.000 C 
BRANCH  27  29
ATOM     29  C   UNL     1       6.290   0.833   0.707  0.00  0.00    +0.000 C 
ATOM     30  N   UNL     1       6.503   1.164   2.013  0.00  0.00    +0.000 N 
ATOM     31  O   UNL     1       7.093   1.182  -0.154  0.00  0.00    +0.000 OA
ATOM     32  H   UNL     1       5.859   0.885   2.703  0.00  0.00    +0.000 HD
ATOM     33  H   UNL     1       7.301   1.683   2.265  0.00  0.00    +0.000 HD
ENDBRANCH  27  29
ENDBRANCH  24  27
ENDBRANCH  23  24
ENDBRANCH  10  23
TORSDOF 7
