REMARK  Name = 
REMARK  7 active torsions:
REMARK  status: ('A' for Active; 'I' for Inactive)
REMARK    1  A    between atoms: C_1  and  O_2
REMARK    2  A    between atoms: O_2  and  C_3
REMARK    3  A    between atoms: C_5  and  N_6
REMARK    4  A    between atoms: C_12  and  C_13
REMARK    5  A    between atoms: N_23  and  C_24
REMARK    6  A    between atoms: C_28  and  O_29
REMARK    7  A    between atoms: O_29  and  C_30
REMARK                            x       y       z     vdW  Elec       q    Type
REMARK                         _______ _______ _______ _____ _____    ______ ____
ROOT
ATOM      1  N   UNL     1       3.747  -3.915  -2.308  0.00  0.00    +0.000 N 
ATOM      2  C   UNL     1       3.995  -5.126  -2.961  0.00  0.00    +0.000 A 
ATOM      3  N   UNL     1       4.743  -6.058  -2.347  0.00  0.00    +0.000 NA
ATOM      4  C   UNL     1       4.929  -7.225  -2.978  0.00  0.00    +0.000 A 
ATOM      5  C   UNL     1       4.388  -7.509  -4.205  0.00  0.00    +0.000 A 
ATOM      6  C   UNL     1       4.572  -8.790  -4.859  0.00  0.00    +0.000 A 
ATOM      7  C   UNL     1       3.967  -9.016  -6.034  0.00  0.00    +0.000 A 
ATOM      8  C   UNL     1       3.126  -7.954  -6.686  0.00  0.00    +0.000 A 
ATOM      9  O   UNL     1       2.568  -8.201  -7.754  0.00  0.00    +0.000 OA
ATOM     10  N   UNL     1       3.031  -6.734  -6.033  0.00  0.00    +0.000 N 
ATOM     11  C   UNL     1       2.254  -5.658  -6.624  0.00  0.00    +0.000 C 
ATOM     12  C   UNL     1       3.637  -6.495  -4.773  0.00  0.00    +0.000 A 
ATOM     13  N   UNL     1       3.442  -5.300  -4.169  0.00  0.00    +0.000 NA
ATOM     14  H   UNL     1       2.919  -3.438  -2.546  0.00  0.00    +0.000 HD
ENDROOT
BRANCH   7  15
ATOM     15  C   UNL     1       4.129 -10.324  -6.699  0.00  0.00    +0.000 A 
ATOM     16  C   UNL     1       3.253 -11.389  -6.427  0.00  0.00    +0.000 A 
ATOM     17 CL   UNL     1       1.980 -11.252  -5.259  0.00  0.00    +0.000 Cl
ATOM     18  C   UNL     1       3.387 -12.613  -7.089  0.00  0.00    +0.000 A 
ATOM     19  C   UNL     1       4.388 -12.788  -8.044  0.00  0.00    +0.000 A 
ATOM     20  C   UNL     1       5.270 -11.746  -8.319  0.00  0.00    +0.000 A 
ATOM     21  C   UNL     1       5.150 -10.526  -7.646  0.00  0.00    +0.000 A 
ATOM     22 CL   UNL     1       6.320  -9.300  -8.006  0.00  0.00    +0.000 Cl
ENDBRANCH   7  15
BRANCH   1  25
ATOM     23  C   UNL     1       6.785  -2.848  -0.427  0.00  0.00    +0.000 A 
ATOM     24  C   UNL     1       5.968  -3.451  -1.381  0.00  0.00    +0.000 A 
ATOM     25  C   UNL     1       4.575  -3.318  -1.338  0.00  0.00    +0.000 A 
ATOM     26  C   UNL     1       4.003  -2.532  -0.331  0.00  0.00    +0.000 A 
ATOM     27  C   UNL     1       4.808  -1.950   0.652  0.00  0.00    +0.000 A 
ATOM     28  C   UNL     1       6.198  -2.087   0.581  0.00  0.00    +0.000 A 
BRANCH  23  30
ATOM     29  C   UNL     1       8.744  -3.842  -1.321  0.00  0.00    +0.000 C 
ATOM     30  O   UNL     1       8.151  -2.941  -0.388  0.00  0.00    +0.000 OA
ENDBRANCH  23  30
BRANCH  27  31
ATOM     31  O   UNL     1       4.331  -1.217   1.707  0.00  0.00    +0.000 OA
ATOM     32  C   UNL     1       3.072  -1.653   2.212  0.00  0.00    +0.000 C 
ENDBRANCH  27  31
ENDBRANCH   1  25
TORSDOF 4
