REMARK  Name = 
REMARK  8 active torsions:
REMARK  status: ('A' for Active; 'I' for Inactive)
REMARK    1  A    between atoms: C_2  and  C_3
REMARK    2  A    between atoms: N_5  and  C_6
REMARK    3  A    between atoms: C_12  and  N_13
REMARK    4  A    between atoms: N_13  and  C_14
REMARK    5  A    between atoms: N_17  and  C_18
REMARK    6  A    between atoms: N_23  and  C_24
REMARK    7  A    between atoms: C_24  and  C_25
REMARK    8  A    between atoms: C_24  and  C_26
REMARK                            x       y       z     vdW  Elec       q    Type
REMARK                         _______ _______ _______ _____ _____    ______ ____
ROOT
ATOM      1  C   UNL     1      -2.191   2.543   0.960  0.00  0.00    +0.000 C 
ATOM      2  C   UNL     1      -3.467   2.008   0.305  0.00  0.00    +0.000 C 
ATOM      3  C   UNL     1      -3.269   2.214  -1.190  0.00  0.00    +0.000 C 
ATOM      4  N   UNL     1      -2.306   3.288  -1.288  0.00  0.00    +0.000 N 
ATOM      5  C   UNL     1      -2.422   4.316  -2.185  0.00  0.00    +0.000 A 
ATOM      6  N   UNL     1      -1.408   5.205  -2.246  0.00  0.00    +0.000 NA
ATOM      7  C   UNL     1      -1.445   6.264  -3.104  0.00  0.00    +0.000 A 
ATOM      8  C   UNL     1      -2.594   6.407  -3.894  0.00  0.00    +0.000 A 
ATOM      9  N   UNL     1      -2.981   7.369  -4.805  0.00  0.00    +0.000 NA
ATOM     10  C   UNL     1      -4.197   7.013  -5.165  0.00  0.00    +0.000 A 
ATOM     11  N   UNL     1      -4.608   5.868  -4.531  0.00  0.00    +0.000 N 
ATOM     12  C   UNL     1      -3.580   5.455  -3.728  0.00  0.00    +0.000 A 
ATOM     13  N   UNL     1      -3.544   4.390  -2.920  0.00  0.00    +0.000 NA
ATOM     14  C   UNL     1      -1.514   3.460  -0.082  0.00  0.00    +0.000 C 
ENDROOT
BRANCH   1  17
ATOM     15  C   UNL     1      -3.131   4.210   2.705  0.00  0.00    +0.000 C 
ATOM     16  O   UNL     1      -3.166   4.455   3.910  0.00  0.00    +0.000 OA
ATOM     17  N   UNL     1      -2.417   3.131   2.280  0.00  0.00    +0.000 N 
ATOM     18  H   UNL     1      -1.961   2.650   3.008  0.00  0.00    +0.000 HD
BRANCH  15  20
ATOM     19  C   UNL     1      -4.533   6.134   2.128  0.00  0.00    +0.000 C 
ATOM     20  C   UNL     1      -3.848   5.053   1.723  0.00  0.00    +0.000 C 
ENDBRANCH  15  20
ENDBRANCH   1  17
BRANCH  11  21
ATOM     21  C   UNL     1      -5.925   5.261  -4.656  0.00  0.00    +0.000 C 
ATOM     22  C   UNL     1      -5.854   3.827  -5.180  0.00  0.00    +0.000 C 
ATOM     23  C   UNL     1      -6.721   5.349  -3.352  0.00  0.00    +0.000 C 
ENDBRANCH  11  21
BRANCH   7  24
ATOM     24  N   UNL     1      -0.423   7.234  -3.151  0.00  0.00    +0.000 N 
ATOM     25  H   UNL     1      -0.409   7.812  -3.948  0.00  0.00    +0.000 HD
BRANCH  24  26
ATOM     26  C   UNL     1       0.538   7.462  -2.232  0.00  0.00    +0.000 A 
ATOM     27  C   UNL     1       1.047   6.623  -1.222  0.00  0.00    +0.000 A 
ATOM     28  N   UNL     1       1.935   7.248  -0.441  0.00  0.00    +0.000 NA
ATOM     29  N   UNL     1       1.974   8.493  -0.954  0.00  0.00    +0.000 N 
ATOM     30  C   UNL     1       2.720   9.513  -0.259  0.00  0.00    +0.000 C 
ATOM     31  C   UNL     1       1.206   8.651  -2.072  0.00  0.00    +0.000 A 
ENDBRANCH  24  26
ENDBRANCH   7  24
TORSDOF 5
