
     RDKit          3D

 97103  0  0  0  0  0  0  0  0999 V2000
   11.9462   -1.4967    0.7691 C   0  0  0  0  0  0  0  0  0  0  0  0
   11.3194   -0.9076   -0.4917 C   0  0  0  0  0  0  0  0  0  0  0  0
   10.0939   -0.0485   -0.1603 C   0  0  0  0  0  0  0  0  0  0  0  0
    9.5257    0.5270   -1.4015 N   0  0  0  0  0  0  0  0  0  0  0  0
    9.0154    1.9034   -1.2272 C   0  0  0  0  0  0  0  0  0  0  0  0
    7.6983    1.9370   -0.4393 C   0  0  0  0  0  0  0  0  0  0  0  0
    6.6392    1.0692   -1.1431 C   0  0  0  0  0  0  0  0  0  0  0  0
    5.3057    1.0530   -0.3961 C   0  0  0  0  0  0  0  0  0  0  0  0
    5.2790    0.6613    0.9583 C   0  0  0  0  0  0  0  0  0  0  0  0
    4.0725    0.5815    1.6748 C   0  0  0  0  0  0  0  0  0  0  0  0
    4.0370    0.2092    3.0296 O   0  0  0  0  0  0  0  0  0  0  0  0
    5.1850   -0.0383    3.8323 C   0  0  0  0  0  0  0  0  0  0  0  0
    2.8628    0.8643    1.0239 C   0  0  0  0  0  0  0  0  0  0  0  0
    1.6242    0.7600    1.7466 N   0  0  0  0  0  0  0  0  0  0  0  0
    0.4625    0.0847    1.2418 C   0  0  0  0  0  0  0  0  0  0  0  0
    0.4373   -0.4170   -0.0227 N   0  0  0  0  0  0  0  0  0  0  0  0
   -0.6494   -1.0817   -0.4919 C   0  0  0  0  0  0  0  0  0  0  0  0
   -1.7579   -1.2729    0.3307 C   0  0  0  0  0  0  0  0  0  0  0  0
   -1.7195   -0.7627    1.6330 C   0  0  0  0  0  0  0  0  0  0  0  0
   -2.8438   -0.9809    2.5674 C   0  0  0  0  0  0  0  0  0  0  0  0
   -4.2112   -0.8734    2.3054 C   0  0  0  0  0  0  0  0  0  0  0  0
   -4.8618   -0.3581    1.0816 C   0  0  0  0  0  0  0  0  0  0  0  0
   -4.3236    0.7303    0.3813 C   0  0  0  0  0  0  0  0  0  0  0  0
   -4.9744    1.2406   -0.7423 C   0  0  0  0  0  0  0  0  0  0  0  0
   -6.1913    0.6842   -1.1788 C   0  0  0  0  0  0  0  0  0  0  0  0
   -6.8546    1.1578   -2.3244 O   0  0  0  0  0  0  0  0  0  0  0  0
   -6.5546    2.3634   -3.0267 C   0  0  0  0  0  0  0  0  0  0  0  0
   -6.9977    3.5802   -2.2212 C   0  0  0  0  0  0  0  0  0  0  0  0
   -6.7499   -0.3977   -0.4637 C   0  0  0  0  0  0  0  0  0  0  0  0
   -8.0439   -0.9915   -0.8672 C   0  0  0  0  0  0  0  0  0  0  0  0
   -8.2296   -2.2327   -0.7333 O   0  0  0  0  0  0  0  0  0  0  0  0
   -9.1108   -0.1546   -1.3372 N   0  0  0  0  0  0  0  0  0  0  0  0
  -10.2586   -0.6515   -2.0469 C   0  0  0  0  0  0  0  0  0  0  0  0
  -11.5281   -0.1113   -1.7734 C   0  0  0  0  0  0  0  0  0  0  0  0
  -11.6776    0.8400   -0.8175 F   0  0  0  0  0  0  0  0  0  0  0  0
  -12.6509   -0.5540   -2.4791 C   0  0  0  0  0  0  0  0  0  0  0  0
  -12.5170   -1.5294   -3.4700 C   0  0  0  0  0  0  0  0  0  0  0  0
  -11.2575   -2.0559   -3.7660 C   0  0  0  0  0  0  0  0  0  0  0  0
  -10.1280   -1.6185   -3.0647 C   0  0  0  0  0  0  0  0  0  0  0  0
   -8.9092   -2.0988   -3.4160 F   0  0  0  0  0  0  0  0  0  0  0  0
   -6.0754   -0.9151    0.6545 C   0  0  0  0  0  0  0  0  0  0  0  0
   -4.9192   -1.2745    3.3893 N   0  0  0  0  0  0  0  0  0  0  0  0
   -3.9716   -1.6070    4.2869 C   0  0  0  0  0  0  0  0  0  0  0  0
   -4.2087   -2.1055    5.5669 C   0  0  0  0  0  0  0  0  0  0  0  0
   -3.0952   -2.4358    6.3544 C   0  0  0  0  0  0  0  0  0  0  0  0
   -1.7927   -2.2699    5.8482 C   0  0  0  0  0  0  0  0  0  0  0  0
   -1.6134   -1.7673    4.5520 C   0  0  0  0  0  0  0  0  0  0  0  0
   -2.7185   -1.4409    3.8274 N   0  0  0  0  0  0  0  0  0  0  0  0
   -0.6111   -0.0986    2.0560 N   0  0  0  0  0  0  0  0  0  0  0  0
    2.8754    1.2757   -0.3160 C   0  0  0  0  0  0  0  0  0  0  0  0
    4.0765    1.3597   -1.0403 C   0  0  0  0  0  0  0  0  0  0  0  0
    4.0114    1.7677   -2.4907 C   0  0  0  0  0  0  0  0  0  0  0  0
    7.1658   -0.3598   -1.3394 C   0  0  0  0  0  0  0  0  0  0  0  0
    8.5293   -0.3536   -2.0547 C   0  0  0  0  0  0  0  0  0  0  0  0
   12.8390   -2.1003    0.4957 H   0  0  0  0  0  0  0  0  0  0  0  0
   12.2663   -0.6876    1.4588 H   0  0  0  0  0  0  0  0  0  0  0  0
   11.2190   -2.1567    1.2887 H   0  0  0  0  0  0  0  0  0  0  0  0
   11.0326   -1.7408   -1.1677 H   0  0  0  0  0  0  0  0  0  0  0  0
   12.0755   -0.2829   -1.0127 H   0  0  0  0  0  0  0  0  0  0  0  0
   10.4287    0.7551    0.5341 H   0  0  0  0  0  0  0  0  0  0  0  0
    9.3460   -0.6582    0.3886 H   0  0  0  0  0  0  0  0  0  0  0  0
    8.8553    2.3627   -2.2279 H   0  0  0  0  0  0  0  0  0  0  0  0
    9.7735    2.5377   -0.7182 H   0  0  0  0  0  0  0  0  0  0  0  0
    7.3384    2.9855   -0.3801 H   0  0  0  0  0  0  0  0  0  0  0  0
    7.8940    1.5886    0.5943 H   0  0  0  0  0  0  0  0  0  0  0  0
    6.5114    1.5095   -2.1533 H   0  0  0  0  0  0  0  0  0  0  0  0
    6.2031    0.3966    1.4500 H   0  0  0  0  0  0  0  0  0  0  0  0
    4.8587   -0.2750    4.8649 H   0  0  0  0  0  0  0  0  0  0  0  0
    5.8295    0.8647    3.8588 H   0  0  0  0  0  0  0  0  0  0  0  0
    5.7536   -0.9050    3.4324 H   0  0  0  0  0  0  0  0  0  0  0  0
    1.6198    1.0306    2.7559 H   0  0  0  0  0  0  0  0  0  0  0  0
   -0.6468   -1.4692   -1.5022 H   0  0  0  0  0  0  0  0  0  0  0  0
   -2.6135   -1.8275   -0.0322 H   0  0  0  0  0  0  0  0  0  0  0  0
   -3.4074    1.2018    0.7133 H   0  0  0  0  0  0  0  0  0  0  0  0
   -4.5212    2.0742   -1.2576 H   0  0  0  0  0  0  0  0  0  0  0  0
   -7.1160    2.3545   -3.9849 H   0  0  0  0  0  0  0  0  0  0  0  0
   -5.4747    2.4220   -3.2773 H   0  0  0  0  0  0  0  0  0  0  0  0
   -8.0763    3.4947   -1.9746 H   0  0  0  0  0  0  0  0  0  0  0  0
   -6.8358    4.5036   -2.8145 H   0  0  0  0  0  0  0  0  0  0  0  0
   -6.4194    3.6626   -1.2779 H   0  0  0  0  0  0  0  0  0  0  0  0
   -9.1141    0.8452   -1.0329 H   0  0  0  0  0  0  0  0  0  0  0  0
  -13.6263   -0.1415   -2.2593 H   0  0  0  0  0  0  0  0  0  0  0  0
  -13.3874   -1.8692   -4.0159 H   0  0  0  0  0  0  0  0  0  0  0  0
  -11.1555   -2.7956   -4.5498 H   0  0  0  0  0  0  0  0  0  0  0  0
   -6.5065   -1.7423    1.2070 H   0  0  0  0  0  0  0  0  0  0  0  0
   -5.2151   -2.2388    5.9405 H   0  0  0  0  0  0  0  0  0  0  0  0
   -3.2394   -2.8313    7.3507 H   0  0  0  0  0  0  0  0  0  0  0  0
   -0.9347   -2.5371    6.4503 H   0  0  0  0  0  0  0  0  0  0  0  0
   -0.6181   -1.6528    4.1469 H   0  0  0  0  0  0  0  0  0  0  0  0
    1.9415    1.5379   -0.7955 H   0  0  0  0  0  0  0  0  0  0  0  0
    4.4500    0.9698   -3.1284 H   0  0  0  0  0  0  0  0  0  0  0  0
    4.5641    2.7186   -2.6438 H   0  0  0  0  0  0  0  0  0  0  0  0
    2.9653    1.9276   -2.8276 H   0  0  0  0  0  0  0  0  0  0  0  0
    7.2487   -0.8828   -0.3651 H   0  0  0  0  0  0  0  0  0  0  0  0
    6.4425   -0.9344   -1.9602 H   0  0  0  0  0  0  0  0  0  0  0  0
    8.9131   -1.3939   -2.1181 H   0  0  0  0  0  0  0  0  0  0  0  0
    8.3830   -0.0091   -3.1011 H   0  0  0  0  0  0  0  0  0  0  0  0
  1  2  1  0
  2  3  1  0
  3  4  1  0
  4  5  1  0
  5  6  1  0
  6  7  1  0
  7  8  1  0
  8  9  2  0
  9 10  1  0
 10 11  1  0
 11 12  1  0
 10 13  2  0
 13 14  1  0
 14 15  1  0
 15 16  2  0
 16 17  1  0
 17 18  2  0
 18 19  1  0
 19 20  1  0
 20 21  2  0
 21 22  1  0
 22 23  2  0
 23 24  1  0
 24 25  2  0
 25 26  1  0
 26 27  1  0
 27 28  1  0
 25 29  1  0
 29 30  1  0
 30 31  2  0
 30 32  1  0
 32 33  1  0
 33 34  2  0
 34 35  1  0
 34 36  1  0
 36 37  2  0
 37 38  1  0
 38 39  2  0
 39 40  1  0
 29 41  2  0
 21 42  1  0
 42 43  2  0
 43 44  1  0
 44 45  2  0
 45 46  1  0
 46 47  2  0
 47 48  1  0
 19 49  2  0
 13 50  1  0
 50 51  2  0
 51 52  1  0
  7 53  1  0
 53 54  1  0
 54  4  1  0
 51  8  1  0
 49 15  1  0
 48 20  1  0
 41 22  1  0
 48 43  1  0
 39 33  1  0
  1 55  1  0
  1 56  1  0
  1 57  1  0
  2 58  1  0
  2 59  1  0
  3 60  1  0
  3 61  1  0
  5 62  1  0
  5 63  1  0
  6 64  1  0
  6 65  1  0
  7 66  1  0
  9 67  1  0
 12 68  1  0
 12 69  1  0
 12 70  1  0
 14 71  1  0
 17 72  1  0
 18 73  1  0
 23 74  1  0
 24 75  1  0
 27 76  1  0
 27 77  1  0
 28 78  1  0
 28 79  1  0
 28 80  1  0
 32 81  1  0
 36 82  1  0
 37 83  1  0
 38 84  1  0
 41 85  1  0
 44 86  1  0
 45 87  1  0
 46 88  1  0
 47 89  1  0
 50 90  1  0
 52 91  1  0
 52 92  1  0
 52 93  1  0
 53 94  1  0
 53 95  1  0
 54 96  1  0
 54 97  1  0
M  END
