
     RDKit          3D

 36 38  0  0  0  0  0  0  0  0999 V2000
    3.6383   -1.5110   -1.8585 O   0  0  0  0  0  0  0  0  0  0  0  0
    3.8489   -0.4164   -1.2699 C   0  0  0  0  0  0  0  0  0  0  0  0
    4.1233    0.7790   -2.0911 C   0  0  0  0  0  0  0  0  0  0  0  0
    5.0345    1.7148   -1.8027 C   0  0  0  0  0  0  0  0  0  0  0  0
    6.1508    1.6212   -0.4463 Cl  0  0  0  0  0  0  0  0  0  0  0  0
    3.7717   -0.3617    0.2330 C   0  0  0  0  0  0  0  0  0  0  0  0
    2.5590   -1.0918    0.7350 C   0  0  0  0  0  0  0  0  0  0  0  0
    1.2914   -0.4927    0.6772 C   0  0  0  0  0  0  0  0  0  0  0  0
    0.1669   -1.2051    1.1299 C   0  0  0  0  0  0  0  0  0  0  0  0
   -1.1422   -0.6770    1.1075 C   0  0  0  0  0  0  0  0  0  0  0  0
   -1.3998    0.6776    0.6984 N   0  0  0  0  0  0  0  0  0  0  0  0
   -2.6327    1.0988    0.0891 C   0  0  0  0  0  0  0  0  0  0  0  0
   -3.3940    0.2211   -0.7055 C   0  0  0  0  0  0  0  0  0  0  0  0
   -4.5774    0.6606   -1.3063 C   0  0  0  0  0  0  0  0  0  0  0  0
   -5.0061    1.9785   -1.1302 C   0  0  0  0  0  0  0  0  0  0  0  0
   -4.2475    2.8633   -0.3582 C   0  0  0  0  0  0  0  0  0  0  0  0
   -4.8277    4.6683   -0.1278 Br  0  0  0  0  0  0  0  0  0  0  0  0
   -3.0619    2.4268    0.2436 C   0  0  0  0  0  0  0  0  0  0  0  0
   -2.1762   -1.4515    1.5379 N   0  0  0  0  0  0  0  0  0  0  0  0
   -1.9825   -2.7191    1.9823 C   0  0  0  0  0  0  0  0  0  0  0  0
   -0.7330   -3.2453    2.0172 N   0  0  0  0  0  0  0  0  0  0  0  0
    0.3391   -2.5221    1.6046 C   0  0  0  0  0  0  0  0  0  0  0  0
    1.6185   -3.0817    1.6371 C   0  0  0  0  0  0  0  0  0  0  0  0
    2.6870   -2.3630    1.2043 N   0  0  0  0  0  0  0  0  0  0  0  0
    3.5837    0.8716   -3.0257 H   0  0  0  0  0  0  0  0  0  0  0  0
    5.1587    2.5459   -2.4849 H   0  0  0  0  0  0  0  0  0  0  0  0
    3.7184    0.6916    0.5832 H   0  0  0  0  0  0  0  0  0  0  0  0
    4.6904   -0.8188    0.6594 H   0  0  0  0  0  0  0  0  0  0  0  0
    1.2005    0.5041    0.2669 H   0  0  0  0  0  0  0  0  0  0  0  0
   -0.7138    1.4169    0.9708 H   0  0  0  0  0  0  0  0  0  0  0  0
   -3.0658   -0.7953   -0.8785 H   0  0  0  0  0  0  0  0  0  0  0  0
   -5.1592   -0.0196   -1.9149 H   0  0  0  0  0  0  0  0  0  0  0  0
   -5.9230    2.3127   -1.5986 H   0  0  0  0  0  0  0  0  0  0  0  0
   -2.4787    3.1188    0.8383 H   0  0  0  0  0  0  0  0  0  0  0  0
   -2.8256   -3.3085    2.3152 H   0  0  0  0  0  0  0  0  0  0  0  0
    1.7658   -4.0911    1.9994 H   0  0  0  0  0  0  0  0  0  0  0  0
  1  2  2  0
  2  3  1  0
  3  4  2  0
  4  5  1  0
  2  6  1  0
  6  7  1  0
  7  8  2  0
  8  9  1  0
  9 10  2  0
 10 11  1  0
 11 12  1  0
 12 13  2  0
 13 14  1  0
 14 15  2  0
 15 16  1  0
 16 17  1  0
 16 18  2  0
 10 19  1  0
 19 20  2  0
 20 21  1  0
 21 22  2  0
 22 23  1  0
 23 24  2  0
 24  7  1  0
 22  9  1  0
 18 12  1  0
  3 25  1  0
  4 26  1  0
  6 27  1  0
  6 28  1  0
  8 29  1  0
 11 30  1  0
 13 31  1  0
 14 32  1  0
 15 33  1  0
 18 34  1  0
 20 35  1  0
 23 36  1  0
M  END
