MODEL 1
REMARK VINA RESULT:   -11.483      0.000      0.000
REMARK INTER + INTRA:         -13.246
REMARK INTER:                 -12.826
REMARK INTRA:                  -0.420
REMARK UNBOUND:                -0.420
REMARK  Name = 
REMARK  4 active torsions:
REMARK  status: ('A' for Active; 'I' for Inactive)
REMARK    1  A    between atoms: C_1  and  C_2
REMARK    2  A    between atoms: C_2  and  C_3
REMARK    3  A    between atoms: C_7  and  N_8
REMARK    4  A    between atoms: C_19  and  C_20
REMARK                            x       y       z     vdW  Elec       q    Type
REMARK                         _______ _______ _______ _____ _____    ______ ____
ROOT
ATOM      1  C   UNL     1      21.616   3.973  49.813  0.00  0.00    +0.000 C 
ATOM      2  C   UNL     1      22.825   3.059  49.638  0.00  0.00    +0.000 C 
ATOM      3  C   UNL     1      22.626   2.052  48.509  0.00  0.00    +0.000 C 
ATOM      4  O   UNL     1      23.968   3.899  49.300  0.00  0.00    +0.000 OA
ATOM      5  C   UNL     1      25.136   3.383  49.970  0.00  0.00    +0.000 C 
ATOM      6  C   UNL     1      24.584   2.654  51.126  0.00  0.00    +0.000 A 
ATOM      7  C   UNL     1      25.168   2.162  52.268  0.00  0.00    +0.000 A 
ATOM      8  N   UNL     1      24.477   1.358  53.080  0.00  0.00    +0.000 NA
ATOM      9  C   UNL     1      23.179   1.122  52.776  0.00  0.00    +0.000 A 
ATOM     10  N   UNL     1      22.510   1.617  51.713  0.00  0.00    +0.000 NA
ATOM     11  C   UNL     1      23.258   2.386  50.915  0.00  0.00    +0.000 A 
ENDROOT
BRANCH   7  12
ATOM     12  N   UNL     1      26.474   2.557  52.590  0.00  0.00    +0.000 N 
ATOM     13  C   UNL     1      27.330   2.050  53.503  0.00  0.00    +0.000 A 
ATOM     14  N   UNL     1      28.311   2.793  54.025  0.00  0.00    +0.000 NA
ATOM     15  N   UNL     1      29.245   1.899  54.375  0.00  0.00    +0.000 N 
ATOM     16  C   UNL     1      28.965   0.628  53.958  0.00  0.00    +0.000 A 
ATOM     17  C   UNL     1      29.759  -0.506  53.821  0.00  0.00    +0.000 A 
ATOM     18  C   UNL     1      29.149  -1.656  53.314  0.00  0.00    +0.000 A 
ATOM     19  C   UNL     1      27.785  -1.687  53.025  0.00  0.00    +0.000 A 
ATOM     20  C   UNL     1      27.005  -0.535  53.149  0.00  0.00    +0.000 A 
ATOM     21  C   UNL     1      27.625   0.661  53.573  0.00  0.00    +0.000 A 
ATOM     22  H   UNL     1      26.819   3.321  52.074  0.00  0.00    +0.000 HD
ATOM     23  H   UNL     1      30.055   2.134  54.883  0.00  0.00    +0.000 HD
ENDBRANCH   7  12
BRANCH   9  24
ATOM     24  C   UNL     1      22.457   0.203  53.626  0.00  0.00    +0.000 A 
ATOM     25  C   UNL     1      22.931  -0.865  54.424  0.00  0.00    +0.000 A 
ATOM     26  N   UNL     1      21.960  -1.471  55.100  0.00  0.00    +0.000 NA
ATOM     27  N   UNL     1      20.853  -0.782  54.749  0.00  0.00    +0.000 N 
ATOM     28  C   UNL     1      21.097   0.221  53.860  0.00  0.00    +0.000 A 
ATOM     29  H   UNL     1      19.956  -0.985  55.102  0.00  0.00    +0.000 HD
ENDBRANCH   9  24
TORSDOF 2
ENDMDL
MODEL 2
REMARK VINA RESULT:    -9.807      2.271      6.260
REMARK INTER + INTRA:         -11.373
REMARK INTER:                 -10.477
REMARK INTRA:                  -0.897
REMARK UNBOUND:                -0.420
REMARK  Name = 
REMARK  4 active torsions:
REMARK  status: ('A' for Active; 'I' for Inactive)
REMARK    1  A    between atoms: C_1  and  C_2
REMARK    2  A    between atoms: C_2  and  C_3
REMARK    3  A    between atoms: C_7  and  N_8
REMARK    4  A    between atoms: C_19  and  C_20
REMARK                            x       y       z     vdW  Elec       q    Type
REMARK                         _______ _______ _______ _____ _____    ______ ____
ROOT
ATOM      1  C   UNL     1      22.604  -0.867  55.124  0.00  0.00    +0.000 C 
ATOM      2  C   UNL     1      22.748  -0.288  53.719  0.00  0.00    +0.000 C 
ATOM      3  C   UNL     1      22.666  -1.364  52.641  0.00  0.00    +0.000 C 
ATOM      4  O   UNL     1      21.646   0.646  53.512  0.00  0.00    +0.000 OA
ATOM      5  C   UNL     1      22.136   1.783  52.774  0.00  0.00    +0.000 C 
ATOM      6  C   UNL     1      23.579   1.802  53.074  0.00  0.00    +0.000 A 
ATOM      7  C   UNL     1      24.545   2.760  52.887  0.00  0.00    +0.000 A 
ATOM      8  N   UNL     1      25.833   2.456  53.066  0.00  0.00    +0.000 NA
ATOM      9  C   UNL     1      26.129   1.211  53.508  0.00  0.00    +0.000 A 
ATOM     10  N   UNL     1      25.239   0.232  53.779  0.00  0.00    +0.000 NA
ATOM     11  C   UNL     1      23.969   0.579  53.550  0.00  0.00    +0.000 A 
ENDROOT
BRANCH   7  12
ATOM     12  N   UNL     1      24.156   4.066  52.559  0.00  0.00    +0.000 N 
ATOM     13  C   UNL     1      24.317   4.753  51.408  0.00  0.00    +0.000 A 
ATOM     14  N   UNL     1      24.337   6.090  51.393  0.00  0.00    +0.000 NA
ATOM     15  N   UNL     1      23.925   6.407  50.158  0.00  0.00    +0.000 N 
ATOM     16  C   UNL     1      23.496   5.330  49.434  0.00  0.00    +0.000 A 
ATOM     17  C   UNL     1      22.722   5.228  48.283  0.00  0.00    +0.000 A 
ATOM     18  C   UNL     1      22.427   3.942  47.823  0.00  0.00    +0.000 A 
ATOM     19  C   UNL     1      22.947   2.810  48.451  0.00  0.00    +0.000 A 
ATOM     20  C   UNL     1      23.707   2.928  49.617  0.00  0.00    +0.000 A 
ATOM     21  C   UNL     1      23.938   4.217  50.148  0.00  0.00    +0.000 A 
ATOM     22  H   UNL     1      23.696   4.558  53.278  0.00  0.00    +0.000 HD
ATOM     23  H   UNL     1      23.930   7.327  49.806  0.00  0.00    +0.000 HD
ENDBRANCH   7  12
BRANCH   9  24
ATOM     24  C   UNL     1      27.528   0.872  53.641  0.00  0.00    +0.000 A 
ATOM     25  C   UNL     1      28.149  -0.389  53.805  0.00  0.00    +0.000 A 
ATOM     26  N   UNL     1      29.475  -0.304  53.858  0.00  0.00    +0.000 NA
ATOM     27  N   UNL     1      29.714   1.016  53.712  0.00  0.00    +0.000 N 
ATOM     28  C   UNL     1      28.581   1.763  53.592  0.00  0.00    +0.000 A 
ATOM     29  H   UNL     1      30.620   1.402  53.697  0.00  0.00    +0.000 HD
ENDBRANCH   9  24
TORSDOF 2
ENDMDL
MODEL 3
REMARK VINA RESULT:    -9.750      2.369      5.930
REMARK INTER + INTRA:         -11.309
REMARK INTER:                 -10.517
REMARK INTRA:                  -0.792
REMARK UNBOUND:                -0.420
REMARK  Name = 
REMARK  4 active torsions:
REMARK  status: ('A' for Active; 'I' for Inactive)
REMARK    1  A    between atoms: C_1  and  C_2
REMARK    2  A    between atoms: C_2  and  C_3
REMARK    3  A    between atoms: C_7  and  N_8
REMARK    4  A    between atoms: C_19  and  C_20
REMARK                            x       y       z     vdW  Elec       q    Type
REMARK                         _______ _______ _______ _____ _____    ______ ____
ROOT
ATOM      1  C   UNL     1      21.355  -0.122  54.807  0.00  0.00    +0.000 C 
ATOM      2  C   UNL     1      21.655   0.317  53.376  0.00  0.00    +0.000 C 
ATOM      3  C   UNL     1      21.176  -0.704  52.348  0.00  0.00    +0.000 C 
ATOM      4  O   UNL     1      20.942   1.567  53.139  0.00  0.00    +0.000 OA
ATOM      5  C   UNL     1      21.778   2.433  52.345  0.00  0.00    +0.000 C 
ATOM      6  C   UNL     1      23.144   1.960  52.629  0.00  0.00    +0.000 A 
ATOM      7  C   UNL     1      24.378   2.512  52.389  0.00  0.00    +0.000 A 
ATOM      8  N   UNL     1      25.484   1.785  52.568  0.00  0.00    +0.000 NA
ATOM      9  C   UNL     1      25.340   0.534  53.062  0.00  0.00    +0.000 A 
ATOM     10  N   UNL     1      24.172  -0.063  53.386  0.00  0.00    +0.000 NA
ATOM     11  C   UNL     1      23.097   0.696  53.156  0.00  0.00    +0.000 A 
ENDROOT
BRANCH   7  12
ATOM     12  N   UNL     1      24.459   3.859  52.007  0.00  0.00    +0.000 N 
ATOM     13  C   UNL     1      24.736   4.400  50.802  0.00  0.00    +0.000 A 
ATOM     14  N   UNL     1      25.241   5.634  50.693  0.00  0.00    +0.000 NA
ATOM     15  N   UNL     1      24.844   6.041  49.480  0.00  0.00    +0.000 N 
ATOM     16  C   UNL     1      23.978   5.177  48.872  0.00  0.00    +0.000 A 
ATOM     17  C   UNL     1      23.102   5.331  47.803  0.00  0.00    +0.000 A 
ATOM     18  C   UNL     1      22.311   4.231  47.460  0.00  0.00    +0.000 A 
ATOM     19  C   UNL     1      22.446   3.008  48.117  0.00  0.00    +0.000 A 
ATOM     20  C   UNL     1      23.316   2.874  49.201  0.00  0.00    +0.000 A 
ATOM     21  C   UNL     1      24.056   4.002  49.620  0.00  0.00    +0.000 A 
ATOM     22  H   UNL     1      24.290   4.508  52.727  0.00  0.00    +0.000 HD
ATOM     23  H   UNL     1      25.147   6.882  49.066  0.00  0.00    +0.000 HD
ENDBRANCH   7  12
BRANCH   9  24
ATOM     24  C   UNL     1      26.536  -0.267  53.195  0.00  0.00    +0.000 A 
ATOM     25  C   UNL     1      27.769   0.033  53.821  0.00  0.00    +0.000 A 
ATOM     26  N   UNL     1      28.631  -0.979  53.767  0.00  0.00    +0.000 NA
ATOM     27  N   UNL     1      27.947  -1.943  53.115  0.00  0.00    +0.000 N 
ATOM     28  C   UNL     1      26.694  -1.561  52.740  0.00  0.00    +0.000 A 
ATOM     29  H   UNL     1      28.319  -2.835  52.927  0.00  0.00    +0.000 HD
ENDBRANCH   9  24
TORSDOF 2
ENDMDL
MODEL 4
REMARK VINA RESULT:    -9.624      2.453      4.749
REMARK INTER + INTRA:         -11.168
REMARK INTER:                 -10.927
REMARK INTRA:                  -0.242
REMARK UNBOUND:                -0.420
REMARK  Name = 
REMARK  4 active torsions:
REMARK  status: ('A' for Active; 'I' for Inactive)
REMARK    1  A    between atoms: C_1  and  C_2
REMARK    2  A    between atoms: C_2  and  C_3
REMARK    3  A    between atoms: C_7  and  N_8
REMARK    4  A    between atoms: C_19  and  C_20
REMARK                            x       y       z     vdW  Elec       q    Type
REMARK                         _______ _______ _______ _____ _____    ______ ____
ROOT
ATOM      1  C   UNL     1      19.668  -0.652  53.153  0.00  0.00    +0.000 C 
ATOM      2  C   UNL     1      20.812  -0.189  54.051  0.00  0.00    +0.000 C 
ATOM      3  C   UNL     1      20.376   0.909  55.017  0.00  0.00    +0.000 C 
ATOM      4  O   UNL     1      21.249  -1.337  54.837  0.00  0.00    +0.000 OA
ATOM      5  C   UNL     1      22.685  -1.297  54.955  0.00  0.00    +0.000 C 
ATOM      6  C   UNL     1      23.113  -0.515  53.781  0.00  0.00    +0.000 A 
ATOM      7  C   UNL     1      24.340  -0.337  53.191  0.00  0.00    +0.000 A 
ATOM      8  N   UNL     1      24.498   0.589  52.242  0.00  0.00    +0.000 NA
ATOM      9  C   UNL     1      23.401   1.271  51.840  0.00  0.00    +0.000 A 
ATOM     10  N   UNL     1      22.148   1.112  52.318  0.00  0.00    +0.000 NA
ATOM     11  C   UNL     1      22.052   0.200  53.289  0.00  0.00    +0.000 A 
ENDROOT
BRANCH   7  12
ATOM     12  N   UNL     1      25.403  -1.172  53.563  0.00  0.00    +0.000 N 
ATOM     13  C   UNL     1      26.698  -1.144  53.183  0.00  0.00    +0.000 A 
ATOM     14  N   UNL     1      27.460  -2.242  53.227  0.00  0.00    +0.000 NA
ATOM     15  N   UNL     1      28.705  -1.767  53.368  0.00  0.00    +0.000 N 
ATOM     16  C   UNL     1      28.753  -0.417  53.570  0.00  0.00    +0.000 A 
ATOM     17  C   UNL     1      29.751   0.419  54.060  0.00  0.00    +0.000 A 
ATOM     18  C   UNL     1      29.446   1.777  54.180  0.00  0.00    +0.000 A 
ATOM     19  C   UNL     1      28.218   2.285  53.757  0.00  0.00    +0.000 A 
ATOM     20  C   UNL     1      27.219   1.431  53.284  0.00  0.00    +0.000 A 
ATOM     21  C   UNL     1      27.478   0.043  53.243  0.00  0.00    +0.000 A 
ATOM     22  H   UNL     1      25.169  -1.889  54.195  0.00  0.00    +0.000 HD
ATOM     23  H   UNL     1      29.508  -2.337  53.331  0.00  0.00    +0.000 HD
ENDBRANCH   7  12
BRANCH   9  24
ATOM     24  C   UNL     1      23.592   2.312  50.855  0.00  0.00    +0.000 A 
ATOM     25  C   UNL     1      22.911   2.554  49.640  0.00  0.00    +0.000 A 
ATOM     26  N   UNL     1      23.352   3.640  49.011  0.00  0.00    +0.000 NA
ATOM     27  N   UNL     1      24.315   4.111  49.832  0.00  0.00    +0.000 N 
ATOM     28  C   UNL     1      24.505   3.344  50.942  0.00  0.00    +0.000 A 
ATOM     29  H   UNL     1      24.831   4.928  49.645  0.00  0.00    +0.000 HD
ENDBRANCH   9  24
TORSDOF 2
ENDMDL
MODEL 5
REMARK VINA RESULT:    -9.586      2.051      5.590
REMARK INTER + INTRA:         -11.127
REMARK INTER:                 -10.385
REMARK INTRA:                  -0.741
REMARK UNBOUND:                -0.420
REMARK  Name = 
REMARK  4 active torsions:
REMARK  status: ('A' for Active; 'I' for Inactive)
REMARK    1  A    between atoms: C_1  and  C_2
REMARK    2  A    between atoms: C_2  and  C_3
REMARK    3  A    between atoms: C_7  and  N_8
REMARK    4  A    between atoms: C_19  and  C_20
REMARK                            x       y       z     vdW  Elec       q    Type
REMARK                         _______ _______ _______ _____ _____    ______ ____
ROOT
ATOM      1  C   UNL     1      28.255  -1.067  52.743  0.00  0.00    +0.000 C 
ATOM      2  C   UNL     1      27.870   0.179  53.536  0.00  0.00    +0.000 C 
ATOM      3  C   UNL     1      28.321   0.096  54.991  0.00  0.00    +0.000 C 
ATOM      4  O   UNL     1      28.539   1.319  52.919  0.00  0.00    +0.000 OA
ATOM      5  C   UNL     1      27.641   2.448  52.939  0.00  0.00    +0.000 C 
ATOM      6  C   UNL     1      26.304   1.832  53.000  0.00  0.00    +0.000 A 
ATOM      7  C   UNL     1      25.045   2.342  52.795  0.00  0.00    +0.000 A 
ATOM      8  N   UNL     1      23.969   1.616  53.106  0.00  0.00    +0.000 NA
ATOM      9  C   UNL     1      24.170   0.353  53.549  0.00  0.00    +0.000 A 
ATOM     10  N   UNL     1      25.367  -0.249  53.717  0.00  0.00    +0.000 NA
ATOM     11  C   UNL     1      26.410   0.534  53.424  0.00  0.00    +0.000 A 
ENDROOT
BRANCH   7  12
ATOM     12  N   UNL     1      24.911   3.608  52.207  0.00  0.00    +0.000 N 
ATOM     13  C   UNL     1      24.893   3.958  50.903  0.00  0.00    +0.000 A 
ATOM     14  N   UNL     1      25.236   5.189  50.508  0.00  0.00    +0.000 NA
ATOM     15  N   UNL     1      24.573   5.357  49.356  0.00  0.00    +0.000 N 
ATOM     16  C   UNL     1      23.701   4.343  49.077  0.00  0.00    +0.000 A 
ATOM     17  C   UNL     1      22.625   4.252  48.201  0.00  0.00    +0.000 A 
ATOM     18  C   UNL     1      21.902   3.055  48.197  0.00  0.00    +0.000 A 
ATOM     19  C   UNL     1      22.288   1.973  48.988  0.00  0.00    +0.000 A 
ATOM     20  C   UNL     1      23.359   2.086  49.877  0.00  0.00    +0.000 A 
ATOM     21  C   UNL     1      24.043   3.319  49.960  0.00  0.00    +0.000 A 
ATOM     22  H   UNL     1      24.816   4.355  52.841  0.00  0.00    +0.000 HD
ATOM     23  H   UNL     1      24.701   6.136  48.768  0.00  0.00    +0.000 HD
ENDBRANCH   7  12
BRANCH   9  24
ATOM     24  C   UNL     1      23.003  -0.404  53.941  0.00  0.00    +0.000 A 
ATOM     25  C   UNL     1      22.799  -1.254  55.054  0.00  0.00    +0.000 A 
ATOM     26  N   UNL     1      21.568  -1.754  55.098  0.00  0.00    +0.000 NA
ATOM     27  N   UNL     1      20.967  -1.215  54.016  0.00  0.00    +0.000 N 
ATOM     28  C   UNL     1      21.788  -0.410  53.285  0.00  0.00    +0.000 A 
ATOM     29  H   UNL     1      20.028  -1.387  53.779  0.00  0.00    +0.000 HD
ENDBRANCH   9  24
TORSDOF 2
ENDMDL
MODEL 6
REMARK VINA RESULT:    -8.867      3.105      5.530
REMARK INTER + INTRA:         -10.323
REMARK INTER:                  -9.652
REMARK INTRA:                  -0.671
REMARK UNBOUND:                -0.420
REMARK  Name = 
REMARK  4 active torsions:
REMARK  status: ('A' for Active; 'I' for Inactive)
REMARK    1  A    between atoms: C_1  and  C_2
REMARK    2  A    between atoms: C_2  and  C_3
REMARK    3  A    between atoms: C_7  and  N_8
REMARK    4  A    between atoms: C_19  and  C_20
REMARK                            x       y       z     vdW  Elec       q    Type
REMARK                         _______ _______ _______ _____ _____    ______ ____
ROOT
ATOM      1  C   UNL     1      20.008   0.997  50.980  0.00  0.00    +0.000 C 
ATOM      2  C   UNL     1      21.034   1.658  50.064  0.00  0.00    +0.000 C 
ATOM      3  C   UNL     1      21.473   0.735  48.932  0.00  0.00    +0.000 C 
ATOM      4  O   UNL     1      20.403   2.833  49.472  0.00  0.00    +0.000 OA
ATOM      5  C   UNL     1      21.377   3.894  49.400  0.00  0.00    +0.000 C 
ATOM      6  C   UNL     1      22.344   3.556  50.460  0.00  0.00    +0.000 A 
ATOM      7  C   UNL     1      23.344   4.281  51.059  0.00  0.00    +0.000 A 
ATOM      8  N   UNL     1      24.219   3.677  51.867  0.00  0.00    +0.000 NA
ATOM      9  C   UNL     1      24.030   2.361  52.125  0.00  0.00    +0.000 A 
ATOM     10  N   UNL     1      23.038   1.590  51.631  0.00  0.00    +0.000 NA
ATOM     11  C   UNL     1      22.213   2.236  50.803  0.00  0.00    +0.000 A 
ENDROOT
BRANCH   7  12
ATOM     12  N   UNL     1      23.398   5.667  50.852  0.00  0.00    +0.000 N 
ATOM     13  C   UNL     1      24.456   6.505  50.883  0.00  0.00    +0.000 A 
ATOM     14  N   UNL     1      24.305   7.808  51.142  0.00  0.00    +0.000 NA
ATOM     15  N   UNL     1      25.353   8.383  50.537  0.00  0.00    +0.000 N 
ATOM     16  C   UNL     1      26.083   7.517  49.773  0.00  0.00    +0.000 A 
ATOM     17  C   UNL     1      27.016   7.724  48.762  0.00  0.00    +0.000 A 
ATOM     18  C   UNL     1      27.552   6.589  48.145  0.00  0.00    +0.000 A 
ATOM     19  C   UNL     1      27.218   5.305  48.574  0.00  0.00    +0.000 A 
ATOM     20  C   UNL     1      26.265   5.114  49.577  0.00  0.00    +0.000 A 
ATOM     21  C   UNL     1      25.646   6.248  50.148  0.00  0.00    +0.000 A 
ATOM     22  H   UNL     1      22.533   6.094  50.657  0.00  0.00    +0.000 HD
ATOM     23  H   UNL     1      25.575   9.338  50.633  0.00  0.00    +0.000 HD
ENDBRANCH   7  12
BRANCH   9  24
ATOM     24  C   UNL     1      25.016   1.701  52.951  0.00  0.00    +0.000 A 
ATOM     25  C   UNL     1      25.364   0.333  53.038  0.00  0.00    +0.000 A 
ATOM     26  N   UNL     1      26.353   0.109  53.898  0.00  0.00    +0.000 NA
ATOM     27  N   UNL     1      26.657   1.341  54.359  0.00  0.00    +0.000 N 
ATOM     28  C   UNL     1      25.877   2.325  53.832  0.00  0.00    +0.000 A 
ATOM     29  H   UNL     1      27.373   1.510  55.013  0.00  0.00    +0.000 HD
ENDBRANCH   9  24
TORSDOF 2
ENDMDL
MODEL 7
REMARK VINA RESULT:    -8.814      2.289      6.033
REMARK INTER + INTRA:         -10.264
REMARK INTER:                  -9.455
REMARK INTRA:                  -0.809
REMARK UNBOUND:                -0.420
REMARK  Name = 
REMARK  4 active torsions:
REMARK  status: ('A' for Active; 'I' for Inactive)
REMARK    1  A    between atoms: C_1  and  C_2
REMARK    2  A    between atoms: C_2  and  C_3
REMARK    3  A    between atoms: C_7  and  N_8
REMARK    4  A    between atoms: C_19  and  C_20
REMARK                            x       y       z     vdW  Elec       q    Type
REMARK                         _______ _______ _______ _____ _____    ______ ____
ROOT
ATOM      1  C   UNL     1      27.500   0.073  52.510  0.00  0.00    +0.000 C 
ATOM      2  C   UNL     1      26.709   1.378  52.549  0.00  0.00    +0.000 C 
ATOM      3  C   UNL     1      26.992   2.185  53.812  0.00  0.00    +0.000 C 
ATOM      4  O   UNL     1      27.120   2.177  51.399  0.00  0.00    +0.000 OA
ATOM      5  C   UNL     1      25.960   2.844  50.862  0.00  0.00    +0.000 C 
ATOM      6  C   UNL     1      24.835   1.994  51.291  0.00  0.00    +0.000 A 
ATOM      7  C   UNL     1      23.520   1.942  50.900  0.00  0.00    +0.000 A 
ATOM      8  N   UNL     1      22.645   1.206  51.589  0.00  0.00    +0.000 NA
ATOM      9  C   UNL     1      23.119   0.466  52.619  0.00  0.00    +0.000 A 
ATOM     10  N   UNL     1      24.405   0.408  53.028  0.00  0.00    +0.000 NA
ATOM     11  C   UNL     1      25.231   1.190  52.327  0.00  0.00    +0.000 A 
ENDROOT
BRANCH   7  12
ATOM     12  N   UNL     1      23.125   2.628  49.742  0.00  0.00    +0.000 N 
ATOM     13  C   UNL     1      22.409   3.764  49.612  0.00  0.00    +0.000 A 
ATOM     14  N   UNL     1      21.719   4.029  48.498  0.00  0.00    +0.000 NA
ATOM     15  N   UNL     1      21.653   5.366  48.467  0.00  0.00    +0.000 N 
ATOM     16  C   UNL     1      22.404   5.971  49.434  0.00  0.00    +0.000 A 
ATOM     17  C   UNL     1      22.869   7.274  49.576  0.00  0.00    +0.000 A 
ATOM     18  C   UNL     1      23.667   7.551  50.690  0.00  0.00    +0.000 A 
ATOM     19  C   UNL     1      23.926   6.578  51.656  0.00  0.00    +0.000 A 
ATOM     20  C   UNL     1      23.468   5.269  51.489  0.00  0.00    +0.000 A 
ATOM     21  C   UNL     1      22.737   4.950  50.323  0.00  0.00    +0.000 A 
ATOM     22  H   UNL     1      23.412   2.217  48.895  0.00  0.00    +0.000 HD
ATOM     23  H   UNL     1      21.115   5.866  47.810  0.00  0.00    +0.000 HD
ENDBRANCH   7  12
BRANCH   9  24
ATOM     24  C   UNL     1      22.156  -0.280  53.396  0.00  0.00    +0.000 A 
ATOM     25  C   UNL     1      22.353  -1.192  54.460  0.00  0.00    +0.000 A 
ATOM     26  N   UNL     1      21.210  -1.658  54.954  0.00  0.00    +0.000 NA
ATOM     27  N   UNL     1      20.268  -1.034  54.215  0.00  0.00    +0.000 N 
ATOM     28  C   UNL     1      20.784  -0.209  53.262  0.00  0.00    +0.000 A 
ATOM     29  H   UNL     1      19.301  -1.164  54.352  0.00  0.00    +0.000 HD
ENDBRANCH   9  24
TORSDOF 2
ENDMDL
MODEL 8
REMARK VINA RESULT:    -8.691      3.047      5.680
REMARK INTER + INTRA:         -10.126
REMARK INTER:                  -9.325
REMARK INTRA:                  -0.802
REMARK UNBOUND:                -0.420
REMARK  Name = 
REMARK  4 active torsions:
REMARK  status: ('A' for Active; 'I' for Inactive)
REMARK    1  A    between atoms: C_1  and  C_2
REMARK    2  A    between atoms: C_2  and  C_3
REMARK    3  A    between atoms: C_7  and  N_8
REMARK    4  A    between atoms: C_19  and  C_20
REMARK                            x       y       z     vdW  Elec       q    Type
REMARK                         _______ _______ _______ _____ _____    ______ ____
ROOT
ATOM      1  C   UNL     1      21.137   3.261  46.942  0.00  0.00    +0.000 C 
ATOM      2  C   UNL     1      20.990   2.873  48.410  0.00  0.00    +0.000 C 
ATOM      3  C   UNL     1      19.658   3.334  48.996  0.00  0.00    +0.000 C 
ATOM      4  O   UNL     1      21.040   1.418  48.489  0.00  0.00    +0.000 OA
ATOM      5  C   UNL     1      21.781   1.043  49.668  0.00  0.00    +0.000 C 
ATOM      6  C   UNL     1      22.645   2.209  49.925  0.00  0.00    +0.000 A 
ATOM      7  C   UNL     1      23.742   2.382  50.732  0.00  0.00    +0.000 A 
ATOM      8  N   UNL     1      24.235   3.605  50.939  0.00  0.00    +0.000 NA
ATOM      9  C   UNL     1      23.667   4.634  50.269  0.00  0.00    +0.000 A 
ATOM     10  N   UNL     1      22.630   4.545  49.408  0.00  0.00    +0.000 NA
ATOM     11  C   UNL     1      22.154   3.304  49.264  0.00  0.00    +0.000 A 
ENDROOT
BRANCH   7  12
ATOM     12  N   UNL     1      24.364   1.254  51.288  0.00  0.00    +0.000 N 
ATOM     13  C   UNL     1      24.362   0.806  52.561  0.00  0.00    +0.000 A 
ATOM     14  N   UNL     1      25.348   0.033  53.028  0.00  0.00    +0.000 NA
ATOM     15  N   UNL     1      24.772  -0.666  54.016  0.00  0.00    +0.000 N 
ATOM     16  C   UNL     1      23.421  -0.481  54.098  0.00  0.00    +0.000 A 
ATOM     17  C   UNL     1      22.416  -1.208  54.727  0.00  0.00    +0.000 A 
ATOM     18  C   UNL     1      21.104  -0.754  54.570  0.00  0.00    +0.000 A 
ATOM     19  C   UNL     1      20.821   0.419  53.870  0.00  0.00    +0.000 A 
ATOM     20  C   UNL     1      21.839   1.127  53.227  0.00  0.00    +0.000 A 
ATOM     21  C   UNL     1      23.160   0.632  53.299  0.00  0.00    +0.000 A 
ATOM     22  H   UNL     1      24.881   0.708  50.654  0.00  0.00    +0.000 HD
ATOM     23  H   UNL     1      25.275  -1.256  54.624  0.00  0.00    +0.000 HD
ENDBRANCH   7  12
BRANCH   9  24
ATOM     24  C   UNL     1      24.167   5.962  50.546  0.00  0.00    +0.000 A 
ATOM     25  C   UNL     1      25.381   6.577  50.161  0.00  0.00    +0.000 A 
ATOM     26  N   UNL     1      25.475   7.835  50.582  0.00  0.00    +0.000 NA
ATOM     27  N   UNL     1      24.309   8.039  51.231  0.00  0.00    +0.000 N 
ATOM     28  C   UNL     1      23.498   6.945  51.248  0.00  0.00    +0.000 A 
ATOM     29  H   UNL     1      24.069   8.896  51.652  0.00  0.00    +0.000 HD
ENDBRANCH   9  24
TORSDOF 2
ENDMDL
MODEL 9
REMARK VINA RESULT:    -8.583      2.649      7.242
REMARK INTER + INTRA:         -10.006
REMARK INTER:                  -9.188
REMARK INTRA:                  -0.818
REMARK UNBOUND:                -0.420
REMARK  Name = 
REMARK  4 active torsions:
REMARK  status: ('A' for Active; 'I' for Inactive)
REMARK    1  A    between atoms: C_1  and  C_2
REMARK    2  A    between atoms: C_2  and  C_3
REMARK    3  A    between atoms: C_7  and  N_8
REMARK    4  A    between atoms: C_19  and  C_20
REMARK                            x       y       z     vdW  Elec       q    Type
REMARK                         _______ _______ _______ _____ _____    ______ ____
ROOT
ATOM      1  C   UNL     1      21.048   0.318  54.751  0.00  0.00    +0.000 C 
ATOM      2  C   UNL     1      21.446  -0.239  53.387  0.00  0.00    +0.000 C 
ATOM      3  C   UNL     1      21.851  -1.708  53.461  0.00  0.00    +0.000 C 
ATOM      4  O   UNL     1      20.284  -0.133  52.512  0.00  0.00    +0.000 OA
ATOM      5  C   UNL     1      20.731   0.242  51.193  0.00  0.00    +0.000 C 
ATOM      6  C   UNL     1      22.014   0.924  51.438  0.00  0.00    +0.000 A 
ATOM      7  C   UNL     1      22.801   1.719  50.641  0.00  0.00    +0.000 A 
ATOM      8  N   UNL     1      24.029   2.059  51.039  0.00  0.00    +0.000 NA
ATOM      9  C   UNL     1      24.424   1.659  52.270  0.00  0.00    +0.000 A 
ATOM     10  N   UNL     1      23.692   0.933  53.142  0.00  0.00    +0.000 NA
ATOM     11  C   UNL     1      22.486   0.591  52.680  0.00  0.00    +0.000 A 
ENDROOT
BRANCH   7  12
ATOM     12  N   UNL     1      22.276   2.208  49.437  0.00  0.00    +0.000 N 
ATOM     13  C   UNL     1      21.269   3.081  49.224  0.00  0.00    +0.000 A 
ATOM     14  N   UNL     1      20.580   3.084  48.078  0.00  0.00    +0.000 NA
ATOM     15  N   UNL     1      20.133   4.342  47.970  0.00  0.00    +0.000 N 
ATOM     16  C   UNL     1      20.635   5.182  48.925  0.00  0.00    +0.000 A 
ATOM     17  C   UNL     1      20.698   6.569  49.008  0.00  0.00    +0.000 A 
ATOM     18  C   UNL     1      21.333   7.114  50.127  0.00  0.00    +0.000 A 
ATOM     19  C   UNL     1      21.819   6.303  51.152  0.00  0.00    +0.000 A 
ATOM     20  C   UNL     1      21.766   4.911  51.045  0.00  0.00    +0.000 A 
ATOM     21  C   UNL     1      21.210   4.342  49.878  0.00  0.00    +0.000 A 
ATOM     22  H   UNL     1      22.706   1.861  48.622  0.00  0.00    +0.000 HD
ATOM     23  H   UNL     1      19.503   4.634  47.272  0.00  0.00    +0.000 HD
ENDBRANCH   7  12
BRANCH   9  24
ATOM     24  C   UNL     1      25.777   1.979  52.667  0.00  0.00    +0.000 A 
ATOM     25  C   UNL     1      26.924   2.230  51.877  0.00  0.00    +0.000 A 
ATOM     26  N   UNL     1      27.995   2.526  52.608  0.00  0.00    +0.000 NA
ATOM     27  N   UNL     1      27.535   2.481  53.876  0.00  0.00    +0.000 N 
ATOM     28  C   UNL     1      26.218   2.146  53.965  0.00  0.00    +0.000 A 
ATOM     29  H   UNL     1      28.098   2.670  54.661  0.00  0.00    +0.000 HD
ENDBRANCH   9  24
TORSDOF 2
ENDMDL
