REMARK  Name = 
REMARK  8 active torsions:
REMARK  status: ('A' for Active; 'I' for Inactive)
REMARK    1  A    between atoms: N_1  and  C_2
REMARK    2  A    between atoms: C_2  and  C_3
REMARK    3  A    between atoms: C_3  and  O_4
REMARK    4  A    between atoms: O_4  and  C_5
REMARK    5  A    between atoms: C_5  and  C_6
REMARK    6  A    between atoms: N_14  and  C_15
REMARK    7  A    between atoms: N_22  and  C_23
REMARK    8  A    between atoms: C_23  and  C_24
REMARK                            x       y       z     vdW  Elec       q    Type
REMARK                         _______ _______ _______ _____ _____    ______ ____
ROOT
ATOM      1  C   UNL     1       4.729   1.800   1.660  0.00  0.00    +0.000 A 
ATOM      2  C   UNL     1       6.112   1.713   1.296  0.00  0.00    +0.000 A 
ATOM      3  C   UNL     1       6.373   0.414   0.948  0.00  0.00    +0.000 A 
ATOM      4  N   UNL     1       5.218  -0.298   1.088  0.00  0.00    +0.000 N 
ATOM      5  N   UNL     1       5.143  -1.630   0.989  0.00  0.00    +0.000 NA
ATOM      6  C   UNL     1       3.954  -2.092   1.187  0.00  0.00    +0.000 A 
ATOM      7  N   UNL     1       2.825  -1.360   1.398  0.00  0.00    +0.000 NA
ATOM      8  C   UNL     1       2.864  -0.059   1.499  0.00  0.00    +0.000 A 
ATOM      9  N   UNL     1       1.679   0.655   1.654  0.00  0.00    +0.000 N 
ATOM     10  C   UNL     1       4.180   0.541   1.406  0.00  0.00    +0.000 A 
ATOM     11  H   UNL     1       1.735   1.627   1.806  0.00  0.00    +0.000 HD
ENDROOT
BRANCH   9  12
ATOM     12  C   UNL     1       0.395   0.052   1.604  0.00  0.00    +0.000 A 
ATOM     13  C   UNL     1       0.145  -1.158   2.270  0.00  0.00    +0.000 A 
ATOM     14  C   UNL     1      -1.002  -1.933   2.042  0.00  0.00    +0.000 A 
ATOM     15  C   UNL     1      -1.910  -1.453   1.100  0.00  0.00    +0.000 A 
ATOM     16  C   UNL     1      -1.745  -0.220   0.468  0.00  0.00    +0.000 A 
ATOM     17  C   UNL     1      -2.871  -0.108  -0.378  0.00  0.00    +0.000 A 
ATOM     18  N   UNL     1      -3.663  -1.180  -0.343  0.00  0.00    +0.000 NA
ATOM     19  N   UNL     1      -3.066  -1.983   0.571  0.00  0.00    +0.000 N 
ATOM     20  C   UNL     1      -0.597   0.559   0.743  0.00  0.00    +0.000 A 
BRANCH  19  21
ATOM     21  C   UNL     1      -3.652  -3.286   0.870  0.00  0.00    +0.000 C 
BRANCH  21  22
ATOM     22  C   UNL     1      -4.762  -3.144   1.879  0.00  0.00    +0.000 A 
ATOM     23  C   UNL     1      -6.080  -2.911   1.452  0.00  0.00    +0.000 A 
ATOM     24  C   UNL     1      -7.094  -2.659   2.379  0.00  0.00    +0.000 A 
ATOM     25  C   UNL     1      -6.802  -2.639   3.740  0.00  0.00    +0.000 A 
ATOM     26  C   UNL     1      -5.504  -2.891   4.164  0.00  0.00    +0.000 A 
ATOM     27  F   UNL     1      -5.221  -2.867   5.474  0.00  0.00    +0.000 F 
ATOM     28  C   UNL     1      -4.485  -3.145   3.253  0.00  0.00    +0.000 A 
ENDBRANCH  21  22
ENDBRANCH  19  21
ENDBRANCH   9  12
BRANCH   1  29
ATOM     29  C   UNL     1       4.129   3.048   2.223  0.00  0.00    +0.000 C 
BRANCH  29  30
ATOM     30  O   UNL     1       3.038   2.864   3.124  0.00  0.00    +0.000 OA
BRANCH  30  31
ATOM     31  C   UNL     1       3.302   2.075   4.290  0.00  0.00    +0.000 C 
BRANCH  31  32
ATOM     32  C   UNL     1       4.392   2.597   5.239  0.00  0.00    +0.000 C 
BRANCH  32  33
ATOM     33  N   UNL     1       4.151   3.957   5.724  0.00  0.00    +0.000 N 
ATOM     34  H   UNL     1       4.911   4.235   6.346  0.00  0.00    +0.000 HD
ATOM     35  H   UNL     1       3.268   3.984   6.233  0.00  0.00    +0.000 HD
ATOM     36  H   UNL     1       4.107   4.598   4.932  0.00  0.00    +0.000 HD
ENDBRANCH  32  33
ENDBRANCH  31  32
ENDBRANCH  30  31
ENDBRANCH  29  30
ENDBRANCH   1  29
TORSDOF 8
