REMARK  Name = 
REMARK  5 active torsions:
REMARK  status: ('A' for Active; 'I' for Inactive)
REMARK    1  A    between atoms: C_1  and  C_2
REMARK    2  A    between atoms: C_2  and  C_3
REMARK    3  A    between atoms: C_2  and  C_4
REMARK    4  A    between atoms: C_2  and  N_5
REMARK    5  A    between atoms: C_19  and  C_20
REMARK                            x       y       z     vdW  Elec       q    Type
REMARK                         _______ _______ _______ _____ _____    ______ ____
ROOT
ATOM      1  N   UNL     1       1.184  -3.396   1.212  0.00  0.00    +0.000 N 
ATOM      2  C   UNL     1       1.346  -2.117   0.841  0.00  0.00    +0.000 C 
ATOM      3  O   UNL     1       0.615  -1.294   1.384  0.00  0.00    +0.000 OA
ATOM      4  N   UNL     1       2.292  -1.804  -0.088  0.00  0.00    +0.000 N 
ATOM      5  C   UNL     1       2.370  -0.461  -0.549  0.00  0.00    +0.000 A 
ATOM      6  N   UNL     1       2.047  -0.385  -1.867  0.00  0.00    +0.000 NA
ATOM      7  C   UNL     1       1.696   0.792  -2.383  0.00  0.00    +0.000 A 
ATOM      8  N   UNL     1       1.132   0.825  -3.591  0.00  0.00    +0.000 NA
ATOM      9  C   UNL     1       0.634   1.987  -4.022  0.00  0.00    +0.000 A 
ATOM     10  N   UNL     1      -0.053   2.005  -5.218  0.00  0.00    +0.000 N 
ATOM     11  N   UNL     1       0.733   3.146  -3.376  0.00  0.00    +0.000 NA
ATOM     12  C   UNL     1       1.359   3.108  -2.190  0.00  0.00    +0.000 A 
ATOM     13  C   UNL     1       1.864   1.943  -1.634  0.00  0.00    +0.000 A 
ATOM     14  C   UNL     1       2.451   1.880  -0.353  0.00  0.00    +0.000 A 
ATOM     15  C   UNL     1       2.639   0.649   0.291  0.00  0.00    +0.000 A 
ATOM     16  H   UNL     1       0.410  -3.492   1.813  0.00  0.00    +0.000 HD
ATOM     17  H   UNL     1       2.907  -2.491  -0.431  0.00  0.00    +0.000 HD
ATOM     18  H   UNL     1      -0.156   1.176  -5.738  0.00  0.00    +0.000 HD
ATOM     19  H   UNL     1      -0.439   2.847  -5.551  0.00  0.00    +0.000 HD
ENDROOT
BRANCH  15  20
ATOM     20  C   UNL     1       3.003   0.583   1.764  0.00  0.00    +0.000 A 
ATOM     21  C   UNL     1       2.447   1.448   2.753  0.00  0.00    +0.000 A 
ATOM     22 CL   UNL     1       1.434   2.821   2.416  0.00  0.00    +0.000 Cl
ATOM     23  C   UNL     1       2.663   1.255   4.133  0.00  0.00    +0.000 A 
ATOM     24  C   UNL     1       3.367   0.157   4.593  0.00  0.00    +0.000 A 
ATOM     25  C   UNL     1       3.978  -0.673   3.667  0.00  0.00    +0.000 A 
ATOM     26  C   UNL     1       3.870  -0.411   2.287  0.00  0.00    +0.000 A 
ATOM     27 CL   UNL     1       4.998  -1.282   1.293  0.00  0.00    +0.000 Cl
ENDBRANCH  15  20
BRANCH   1  29
ATOM     28  C   UNL     1       3.353  -4.638   1.196  0.00  0.00    +0.000 C 
ATOM     29  C   UNL     1       1.838  -4.708   0.977  0.00  0.00    +0.000 C 
ATOM     30  C   UNL     1       1.521  -5.298  -0.406  0.00  0.00    +0.000 C 
ATOM     31  C   UNL     1       1.250  -5.668   2.036  0.00  0.00    +0.000 C 
ENDBRANCH   1  29
TORSDOF 2
