REMARK  Name = 
REMARK  12 active torsions:
REMARK  status: ('A' for Active; 'I' for Inactive)
REMARK    1  A    between atoms: C_1  and  O_2
REMARK    2  A    between atoms: O_2  and  C_3
REMARK    3  A    between atoms: C_9  and  N_10
REMARK    4  A    between atoms: N_10  and  C_11
REMARK    5  A    between atoms: C_14  and  O_15
REMARK    6  A    between atoms: O_15  and  C_16
REMARK    7  A    between atoms: C_16  and  C_17
REMARK    8  A    between atoms: C_29  and  O_30
REMARK    9  A    between atoms: O_30  and  C_31
REMARK   10  A    between atoms: C_31  and  C_32
REMARK   11  A    between atoms: C_32  and  C_33
REMARK   12  A    between atoms: C_33  and  N_34
REMARK                            x       y       z     vdW  Elec       q    Type
REMARK                         _______ _______ _______ _____ _____    ______ ____
ROOT
ATOM      1  C   UNL     1       1.409  -0.989   2.651  0.00  0.00    +0.000 A 
ATOM      2  C   UNL     1       0.407  -1.686   3.321  0.00  0.00    +0.000 A 
ATOM      3  C   UNL     1       0.568  -3.003   3.665  0.00  0.00    +0.000 A 
ATOM      4  N   UNL     1      -0.457  -3.596   4.273  0.00  0.00    +0.000 NA
ATOM      5  C   UNL     1      -0.240  -4.834   4.693  0.00  0.00    +0.000 A 
ATOM      6  N   UNL     1       0.918  -5.481   4.620  0.00  0.00    +0.000 NA
ATOM      7  C   UNL     1       1.935  -4.902   3.952  0.00  0.00    +0.000 A 
ATOM      8  C   UNL     1       1.788  -3.629   3.389  0.00  0.00    +0.000 A 
ATOM      9  C   UNL     1       2.713  -2.977   2.535  0.00  0.00    +0.000 A 
ATOM     10  C   UNL     1       2.449  -1.692   2.063  0.00  0.00    +0.000 A 
ENDROOT
BRANCH   1  12
ATOM     11  C   UNL     1       1.211   0.904   3.968  0.00  0.00    +0.000 C 
ATOM     12  O   UNL     1       1.386   0.379   2.638  0.00  0.00    +0.000 OA
ENDBRANCH   1  12
BRANCH   7  13
ATOM     13  N   UNL     1       3.139  -5.628   3.769  0.00  0.00    +0.000 N 
ATOM     14  H   UNL     1       3.961  -5.093   3.681  0.00  0.00    +0.000 HD
BRANCH  13  15
ATOM     15  C   UNL     1       3.293  -7.027   3.698  0.00  0.00    +0.000 A 
ATOM     16  C   UNL     1       4.501  -7.582   3.258  0.00  0.00    +0.000 A 
ATOM     17  C   UNL     1       4.630  -8.971   3.090  0.00  0.00    +0.000 A 
ATOM     18  C   UNL     1       3.549  -9.830   3.347  0.00  0.00    +0.000 A 
ATOM     19  C   UNL     1       2.313  -9.265   3.655  0.00  0.00    +0.000 A 
ATOM     20 CL   UNL     1       0.795 -10.102   3.709  0.00  0.00    +0.000 Cl
ATOM     21  C   UNL     1       2.220  -7.898   3.874  0.00  0.00    +0.000 A 
BRANCH  18  22
ATOM     22  O   UNL     1       3.843 -11.169   3.274  0.00  0.00    +0.000 OA
BRANCH  22  23
ATOM     23  C   UNL     1       3.073 -11.976   4.173  0.00  0.00    +0.000 C 
BRANCH  23  24
ATOM     24  C   UNL     1       3.799 -13.202   4.659  0.00  0.00    +0.000 A 
ATOM     25  C   UNL     1       5.190 -13.242   4.797  0.00  0.00    +0.000 A 
ATOM     26  C   UNL     1       5.813 -14.382   5.324  0.00  0.00    +0.000 A 
ATOM     27  C   UNL     1       5.039 -15.469   5.731  0.00  0.00    +0.000 A 
ATOM     28  C   UNL     1       3.660 -15.418   5.617  0.00  0.00    +0.000 A 
ATOM     29  F   UNL     1       2.919 -16.455   6.023  0.00  0.00    +0.000 F 
ATOM     30  C   UNL     1       3.033 -14.297   5.093  0.00  0.00    +0.000 A 
ENDBRANCH  23  24
ENDBRANCH  22  23
ENDBRANCH  18  22
ENDBRANCH  13  15
ENDBRANCH   7  13
BRANCH  10  31
ATOM     31  O   UNL     1       3.256  -1.268   1.054  0.00  0.00    +0.000 OA
BRANCH  31  32
ATOM     32  C   UNL     1       2.770  -0.263   0.152  0.00  0.00    +0.000 C 
BRANCH  32  33
ATOM     33  C   UNL     1       1.776  -0.707  -0.928  0.00  0.00    +0.000 C 
BRANCH  33  34
ATOM     34  C   UNL     1       0.323  -1.136  -0.652  0.00  0.00    +0.000 C 
BRANCH  34  35
ATOM     35  N   UNL     1      -0.725  -0.429   0.058  0.00  0.00    +0.000 N 
ATOM     36  C   UNL     1      -1.822  -1.160   0.515  0.00  0.00    +0.000 A 
ATOM     37  C   UNL     1      -2.636  -0.275   1.172  0.00  0.00    +0.000 A 
ATOM     38  N   UNL     1      -2.156   0.994   1.036  0.00  0.00    +0.000 NA
ATOM     39  C   UNL     1      -1.066   0.880   0.284  0.00  0.00    +0.000 A 
ATOM     40  N   UNL     1      -0.453   2.043  -0.284  0.00  0.00    +0.000 N 
ATOM     41  O   UNL     1       0.492   1.876  -1.060  0.00  0.00    +0.000 OA
ATOM     42  O   UNL     1      -0.928   3.149   0.016  0.00  0.00    +0.000 OA
ENDBRANCH  34  35
ENDBRANCH  33  34
ENDBRANCH  32  33
ENDBRANCH  31  32
ENDBRANCH  10  31
TORSDOF 11
