
     RDKit          3D

 58 63  0  0  0  0  0  0  0  0999 V2000
    3.4168    3.8177   -2.8132 C   0  0  0  0  0  0  0  0  0  0  0  0
    2.3150    3.8841   -1.9136 O   0  0  0  0  0  0  0  0  0  0  0  0
    1.6441    2.7656   -1.3944 C   0  0  0  0  0  0  0  0  0  0  0  0
    2.0311    1.4490   -1.7151 C   0  0  0  0  0  0  0  0  0  0  0  0
    1.3346    0.3591   -1.1883 C   0  0  0  0  0  0  0  0  0  0  0  0
    0.2422    0.5680   -0.3383 C   0  0  0  0  0  0  0  0  0  0  0  0
   -0.5187   -0.5770    0.1758 C   0  0  0  0  0  0  0  0  0  0  0  0
   -0.2775   -1.2608    1.3722 C   0  0  0  0  0  0  0  0  0  0  0  0
    0.6788   -1.0999    2.3985 C   0  0  0  0  0  0  0  0  0  0  0  0
    1.6793   -0.1111    2.4104 C   0  0  0  0  0  0  0  0  0  0  0  0
    2.5844   -0.0252    3.4738 C   0  0  0  0  0  0  0  0  0  0  0  0
    3.5594    0.9723    3.4439 O   0  0  0  0  0  0  0  0  0  0  0  0
    2.5077   -0.9281    4.5484 C   0  0  0  0  0  0  0  0  0  0  0  0
    3.4314   -0.8102    5.5994 O   0  0  0  0  0  0  0  0  0  0  0  0
    3.4603   -1.6507    6.7486 C   0  0  0  0  0  0  0  0  0  0  0  0
    1.5113   -1.9209    4.5421 C   0  0  0  0  0  0  0  0  0  0  0  0
    0.6034   -2.0128    3.4836 C   0  0  0  0  0  0  0  0  0  0  0  0
   -0.3298   -2.9680    3.5118 O   0  0  0  0  0  0  0  0  0  0  0  0
   -1.2358   -3.1309    2.5504 C   0  0  0  0  0  0  0  0  0  0  0  0
   -2.0810   -4.0565    2.6533 O   0  0  0  0  0  0  0  0  0  0  0  0
   -1.2202   -2.2622    1.4487 C   0  0  0  0  0  0  0  0  0  0  0  0
   -2.0322   -2.2376    0.3669 N   0  0  0  0  0  0  0  0  0  0  0  0
   -3.0811   -3.0478    0.0550 C   0  0  0  0  0  0  0  0  0  0  0  0
   -3.7783   -2.8296   -1.1309 C   0  0  0  0  0  0  0  0  0  0  0  0
   -3.3957   -1.7838   -1.9862 C   0  0  0  0  0  0  0  0  0  0  0  0
   -4.1032   -1.5716   -3.1777 C   0  0  0  0  0  0  0  0  0  0  0  0
   -3.7411   -0.5369   -4.0451 C   0  0  0  0  0  0  0  0  0  0  0  0
   -4.4490   -0.3330   -5.2287 O   0  0  0  0  0  0  0  0  0  0  0  0
   -2.6663    0.3008   -3.7314 C   0  0  0  0  0  0  0  0  0  0  0  0
   -2.3354    1.3271   -4.6321 O   0  0  0  0  0  0  0  0  0  0  0  0
   -1.2674    2.2526   -4.4496 C   0  0  0  0  0  0  0  0  0  0  0  0
   -1.9521    0.0960   -2.5360 C   0  0  0  0  0  0  0  0  0  0  0  0
   -2.2989   -0.9442   -1.6479 C   0  0  0  0  0  0  0  0  0  0  0  0
   -1.6219   -1.2141   -0.4249 C   0  0  0  0  0  0  0  0  0  0  0  0
   -0.1426    1.8729   -0.0063 C   0  0  0  0  0  0  0  0  0  0  0  0
    0.5511    2.9690   -0.5303 C   0  0  0  0  0  0  0  0  0  0  0  0
    0.1364    4.2548   -0.1843 O   0  0  0  0  0  0  0  0  0  0  0  0
    4.2650    3.2785   -2.3405 H   0  0  0  0  0  0  0  0  0  0  0  0
    3.7445    4.8479   -3.0615 H   0  0  0  0  0  0  0  0  0  0  0  0
    3.1132    3.3055   -3.7506 H   0  0  0  0  0  0  0  0  0  0  0  0
    2.8657    1.2569   -2.3750 H   0  0  0  0  0  0  0  0  0  0  0  0
    1.6374   -0.6470   -1.4518 H   0  0  0  0  0  0  0  0  0  0  0  0
    1.7850    0.6050    1.6157 H   0  0  0  0  0  0  0  0  0  0  0  0
    4.2417    1.0843    4.1841 H   0  0  0  0  0  0  0  0  0  0  0  0
    4.2880   -1.3281    7.4126 H   0  0  0  0  0  0  0  0  0  0  0  0
    3.6372   -2.7047    6.4467 H   0  0  0  0  0  0  0  0  0  0  0  0
    2.5039   -1.5672    7.3069 H   0  0  0  0  0  0  0  0  0  0  0  0
    1.4306   -2.6291    5.3558 H   0  0  0  0  0  0  0  0  0  0  0  0
   -3.3923   -3.8569    0.6968 H   0  0  0  0  0  0  0  0  0  0  0  0
   -4.6132   -3.4744   -1.3799 H   0  0  0  0  0  0  0  0  0  0  0  0
   -4.9394   -2.2110   -3.4367 H   0  0  0  0  0  0  0  0  0  0  0  0
   -5.2334   -0.9210   -5.4865 H   0  0  0  0  0  0  0  0  0  0  0  0
   -1.4300    2.8477   -3.5260 H   0  0  0  0  0  0  0  0  0  0  0  0
   -1.2349    2.9446   -5.3159 H   0  0  0  0  0  0  0  0  0  0  0  0
   -0.2985    1.7128   -4.3904 H   0  0  0  0  0  0  0  0  0  0  0  0
   -1.1408    0.7578   -2.3272 H   0  0  0  0  0  0  0  0  0  0  0  0
   -0.9885    2.0384    0.6500 H   0  0  0  0  0  0  0  0  0  0  0  0
    0.5998    5.0841   -0.5352 H   0  0  0  0  0  0  0  0  0  0  0  0
  1  2  1  0
  2  3  1  0
  3  4  2  0
  4  5  1  0
  5  6  2  0
  6  7  1  0
  7  8  1  0
  8  9  1  0
  9 10  2  0
 10 11  1  0
 11 12  1  0
 11 13  2  0
 13 14  1  0
 14 15  1  0
 13 16  1  0
 16 17  2  0
 17 18  1  0
 18 19  1  0
 19 20  2  0
 19 21  1  0
 21 22  1  0
 22 23  1  0
 23 24  2  0
 24 25  1  0
 25 26  2  0
 26 27  1  0
 27 28  1  0
 27 29  2  0
 29 30  1  0
 30 31  1  0
 29 32  1  0
 32 33  2  0
 33 34  1  0
  6 35  1  0
 35 36  2  0
 36 37  1  0
 36  3  1  0
 34  7  2  0
 21  8  2  0
 34 22  1  0
 17  9  1  0
 33 25  1  0
  1 38  1  0
  1 39  1  0
  1 40  1  0
  4 41  1  0
  5 42  1  0
 10 43  1  0
 12 44  1  0
 15 45  1  0
 15 46  1  0
 15 47  1  0
 16 48  1  0
 23 49  1  0
 24 50  1  0
 26 51  1  0
 28 52  1  0
 31 53  1  0
 31 54  1  0
 31 55  1  0
 32 56  1  0
 35 57  1  0
 37 58  1  0
M  END
