MODEL 1
REMARK VINA RESULT:   -10.331      0.000      0.000
REMARK INTER + INTRA:         -13.943
REMARK INTER:                 -13.351
REMARK INTRA:                  -0.593
REMARK UNBOUND:                -0.593
REMARK  Name = 
REMARK  6 active torsions:
REMARK  status: ('A' for Active; 'I' for Inactive)
REMARK    1  A    between atoms: C_1  and  N_2
REMARK    2  A    between atoms: C_5  and  C_6
REMARK    3  A    between atoms: C_9  and  C_10
REMARK    4  A    between atoms: N_16  and  C_17
REMARK    5  A    between atoms: C_17  and  C_18
REMARK    6  A    between atoms: C_17  and  C_26
REMARK                            x       y       z     vdW  Elec       q    Type
REMARK                         _______ _______ _______ _____ _____    ______ ____
ROOT
ATOM      1  C   UNL     1      18.858   0.699  51.875  0.00  0.00    +0.000 A 
ATOM      2  C   UNL     1      18.340   1.976  51.648  0.00  0.00    +0.000 A 
ATOM      3  N   UNL     1      19.071   3.061  51.283  0.00  0.00    +0.000 NA
ATOM      4  C   UNL     1      20.403   2.886  51.168  0.00  0.00    +0.000 A 
ATOM      5  N   UNL     1      21.121   4.004  50.746  0.00  0.00    +0.000 NA
ATOM      6  C   UNL     1      22.407   3.917  50.778  0.00  0.00    +0.000 A 
ATOM      7  N   UNL     1      23.125   2.809  51.161  0.00  0.00    +0.000 N 
ATOM      8  C   UNL     1      22.473   1.619  51.436  0.00  0.00    +0.000 A 
ATOM      9  O   UNL     1      23.030   0.557  51.697  0.00  0.00    +0.000 OA
ATOM     10  C   UNL     1      21.015   1.681  51.434  0.00  0.00    +0.000 A 
ATOM     11  C   UNL     1      20.246   0.578  51.767  0.00  0.00    +0.000 A 
ENDROOT
BRANCH   1  15
ATOM     12  C   UNL     1      16.533  -2.801  52.808  0.00  0.00    +0.000 A 
ATOM     13  C   UNL     1      16.081  -1.868  51.872  0.00  0.00    +0.000 A 
ATOM     14  C   UNL     1      16.816  -0.718  51.598  0.00  0.00    +0.000 A 
ATOM     15  C   UNL     1      18.050  -0.463  52.248  0.00  0.00    +0.000 A 
ATOM     16  C   UNL     1      18.480  -1.391  53.204  0.00  0.00    +0.000 A 
ATOM     17  C   UNL     1      17.741  -2.544  53.474  0.00  0.00    +0.000 A 
BRANCH  12  22
ATOM     18  C   UNL     1      13.158  -6.949  54.926  0.00  0.00    +0.000 C 
ATOM     19  N   UNL     1      13.959  -5.748  54.682  0.00  0.00    +0.000 N 
ATOM     20  C   UNL     1      15.374  -6.100  54.500  0.00  0.00    +0.000 C 
ATOM     21  C   UNL     1      16.235  -4.853  54.274  0.00  0.00    +0.000 C 
ATOM     22  C   UNL     1      15.715  -4.044  53.079  0.00  0.00    +0.000 C 
ATOM     23  C   UNL     1      14.225  -3.735  53.275  0.00  0.00    +0.000 C 
ATOM     24  C   UNL     1      13.434  -5.019  53.520  0.00  0.00    +0.000 C 
ATOM     25  H   UNL     1      13.896  -5.138  55.495  0.00  0.00    +0.000 HD
ENDBRANCH  12  22
ENDBRANCH   1  15
BRANCH   7  26
ATOM     26  C   UNL     1      24.561   2.890  51.455  0.00  0.00    +0.000 C 
BRANCH  26  27
ATOM     27  C   UNL     1      24.778   3.241  52.965  0.00  0.00    +0.000 C 
ATOM     28  O   UNL     1      24.225   4.221  53.480  0.00  0.00    +0.000 OA
ATOM     29  N   UNL     1      25.608   2.503  53.741  0.00  0.00    +0.000 N 
ATOM     30  C   UNL     1      26.305   1.405  53.309  0.00  0.00    +0.000 A 
ATOM     31  N   UNL     1      26.103   0.714  52.222  0.00  0.00    +0.000 NA
ATOM     32  C   UNL     1      27.038  -0.283  52.116  0.00  0.00    +0.000 A 
ATOM     33  C   UNL     1      27.924  -0.363  53.157  0.00  0.00    +0.000 A 
ATOM     34  S   UNL     1      27.600   0.898  54.293  0.00  0.00    +0.000 S 
ATOM     35  H   UNL     1      25.717   2.774  54.681  0.00  0.00    +0.000 HD
ENDBRANCH  26  27
BRANCH  26  36
ATOM     36  C   UNL     1      25.299   3.770  50.444  0.00  0.00    +0.000 A 
ATOM     37  C   UNL     1      24.845   5.093  50.273  0.00  0.00    +0.000 A 
ATOM     38  C   UNL     1      25.527   5.984  49.450  0.00  0.00    +0.000 A 
ATOM     39  C   UNL     1      26.686   5.574  48.800  0.00  0.00    +0.000 A 
ATOM     40  C   UNL     1      27.126   4.255  48.923  0.00  0.00    +0.000 A 
ATOM     41  C   UNL     1      26.424   3.348  49.720  0.00  0.00    +0.000 A 
ENDBRANCH  26  36
ENDBRANCH   7  26
TORSDOF 5
ENDMDL
MODEL 2
REMARK VINA RESULT:   -10.092      4.129     11.078
REMARK INTER + INTRA:         -13.635
REMARK INTER:                 -12.516
REMARK INTRA:                  -1.119
REMARK UNBOUND:                -0.593
REMARK  Name = 
REMARK  6 active torsions:
REMARK  status: ('A' for Active; 'I' for Inactive)
REMARK    1  A    between atoms: C_1  and  N_2
REMARK    2  A    between atoms: C_5  and  C_6
REMARK    3  A    between atoms: C_9  and  C_10
REMARK    4  A    between atoms: N_16  and  C_17
REMARK    5  A    between atoms: C_17  and  C_18
REMARK    6  A    between atoms: C_17  and  C_26
REMARK                            x       y       z     vdW  Elec       q    Type
REMARK                         _______ _______ _______ _____ _____    ______ ____
ROOT
ATOM      1  C   UNL     1      20.170   0.652  51.442  0.00  0.00    +0.000 A 
ATOM      2  C   UNL     1      19.871   1.157  50.175  0.00  0.00    +0.000 A 
ATOM      3  N   UNL     1      18.619   1.305  49.669  0.00  0.00    +0.000 NA
ATOM      4  C   UNL     1      17.597   0.894  50.447  0.00  0.00    +0.000 A 
ATOM      5  N   UNL     1      16.322   1.100  49.921  0.00  0.00    +0.000 NA
ATOM      6  C   UNL     1      15.334   0.578  50.565  0.00  0.00    +0.000 A 
ATOM      7  N   UNL     1      15.430  -0.134  51.737  0.00  0.00    +0.000 N 
ATOM      8  C   UNL     1      16.645  -0.235  52.391  0.00  0.00    +0.000 A 
ATOM      9  O   UNL     1      16.813  -0.771  53.483  0.00  0.00    +0.000 OA
ATOM     10  C   UNL     1      17.794   0.321  51.684  0.00  0.00    +0.000 A 
ATOM     11  C   UNL     1      19.077   0.217  52.197  0.00  0.00    +0.000 A 
ENDROOT
BRANCH   1  15
ATOM     12  C   UNL     1      24.184   0.118  52.901  0.00  0.00    +0.000 A 
ATOM     13  C   UNL     1      23.153  -0.730  53.310  0.00  0.00    +0.000 A 
ATOM     14  C   UNL     1      21.848  -0.534  52.867  0.00  0.00    +0.000 A 
ATOM     15  C   UNL     1      21.526   0.521  51.977  0.00  0.00    +0.000 A 
ATOM     16  C   UNL     1      22.562   1.382  51.594  0.00  0.00    +0.000 A 
ATOM     17  C   UNL     1      23.869   1.180  52.039  0.00  0.00    +0.000 A 
BRANCH  12  22
ATOM     18  C   UNL     1      29.868  -0.307  53.673  0.00  0.00    +0.000 C 
ATOM     19  N   UNL     1      28.509  -0.083  53.178  0.00  0.00    +0.000 N 
ATOM     20  C   UNL     1      27.775  -1.352  53.089  0.00  0.00    +0.000 C 
ATOM     21  C   UNL     1      26.360  -1.142  52.541  0.00  0.00    +0.000 C 
ATOM     22  C   UNL     1      25.592  -0.125  53.395  0.00  0.00    +0.000 C 
ATOM     23  C   UNL     1      26.405   1.171  53.510  0.00  0.00    +0.000 C 
ATOM     24  C   UNL     1      27.811   0.883  54.037  0.00  0.00    +0.000 C 
ATOM     25  H   UNL     1      28.561   0.308  52.237  0.00  0.00    +0.000 HD
ENDBRANCH  12  22
ENDBRANCH   1  15
BRANCH   7  26
ATOM     26  C   UNL     1      14.311  -0.941  52.237  0.00  0.00    +0.000 C 
BRANCH  26  27
ATOM     27  C   UNL     1      13.603  -1.669  51.046  0.00  0.00    +0.000 C 
ATOM     28  O   UNL     1      13.008  -1.031  50.169  0.00  0.00    +0.000 OA
ATOM     29  N   UNL     1      13.590  -3.022  50.963  0.00  0.00    +0.000 N 
ATOM     30  C   UNL     1      14.185  -3.862  51.867  0.00  0.00    +0.000 A 
ATOM     31  N   UNL     1      15.075  -3.555  52.770  0.00  0.00    +0.000 NA
ATOM     32  C   UNL     1      15.392  -4.660  53.515  0.00  0.00    +0.000 A 
ATOM     33  C   UNL     1      14.760  -5.817  53.139  0.00  0.00    +0.000 A 
ATOM     34  S   UNL     1      13.687  -5.491  51.826  0.00  0.00    +0.000 S 
ATOM     35  H   UNL     1      13.121  -3.429  50.200  0.00  0.00    +0.000 HD
ENDBRANCH  26  27
BRANCH  26  36
ATOM     36  C   UNL     1      13.404  -0.137  53.172  0.00  0.00    +0.000 A 
ATOM     37  C   UNL     1      12.620  -0.852  54.098  0.00  0.00    +0.000 A 
ATOM     38  C   UNL     1      11.850  -0.189  55.049  0.00  0.00    +0.000 A 
ATOM     39  C   UNL     1      11.867   1.201  55.103  0.00  0.00    +0.000 A 
ATOM     40  C   UNL     1      12.605   1.926  54.166  0.00  0.00    +0.000 A 
ATOM     41  C   UNL     1      13.350   1.264  53.188  0.00  0.00    +0.000 A 
ENDBRANCH  26  36
ENDBRANCH   7  26
TORSDOF 5
ENDMDL
MODEL 3
REMARK VINA RESULT:    -9.960      4.164     11.751
REMARK INTER + INTRA:         -13.464
REMARK INTER:                 -12.432
REMARK INTRA:                  -1.033
REMARK UNBOUND:                -0.593
REMARK  Name = 
REMARK  6 active torsions:
REMARK  status: ('A' for Active; 'I' for Inactive)
REMARK    1  A    between atoms: C_1  and  N_2
REMARK    2  A    between atoms: C_5  and  C_6
REMARK    3  A    between atoms: C_9  and  C_10
REMARK    4  A    between atoms: N_16  and  C_17
REMARK    5  A    between atoms: C_17  and  C_18
REMARK    6  A    between atoms: C_17  and  C_26
REMARK                            x       y       z     vdW  Elec       q    Type
REMARK                         _______ _______ _______ _____ _____    ______ ____
ROOT
ATOM      1  C   UNL     1      22.106   1.685  51.129  0.00  0.00    +0.000 A 
ATOM      2  C   UNL     1      22.256   0.976  52.322  0.00  0.00    +0.000 A 
ATOM      3  N   UNL     1      21.302   0.192  52.890  0.00  0.00    +0.000 NA
ATOM      4  C   UNL     1      20.112   0.131  52.259  0.00  0.00    +0.000 A 
ATOM      5  N   UNL     1      19.169  -0.717  52.838  0.00  0.00    +0.000 NA
ATOM      6  C   UNL     1      17.974  -0.679  52.354  0.00  0.00    +0.000 A 
ATOM      7  N   UNL     1      17.563   0.103  51.300  0.00  0.00    +0.000 N 
ATOM      8  C   UNL     1      18.486   0.844  50.583  0.00  0.00    +0.000 A 
ATOM      9  O   UNL     1      18.231   1.498  49.575  0.00  0.00    +0.000 OA
ATOM     10  C   UNL     1      19.846   0.846  51.112  0.00  0.00    +0.000 A 
ATOM     11  C   UNL     1      20.845   1.608  50.530  0.00  0.00    +0.000 A 
ENDROOT
BRANCH   1  15
ATOM     12  C   UNL     1      25.120   4.254  49.444  0.00  0.00    +0.000 A 
ATOM     13  C   UNL     1      23.801   4.302  48.989  0.00  0.00    +0.000 A 
ATOM     14  C   UNL     1      22.835   3.445  49.509  0.00  0.00    +0.000 A 
ATOM     15  C   UNL     1      23.154   2.508  50.523  0.00  0.00    +0.000 A 
ATOM     16  C   UNL     1      24.486   2.450  50.952  0.00  0.00    +0.000 A 
ATOM     17  C   UNL     1      25.450   3.313  50.430  0.00  0.00    +0.000 A 
BRANCH  12  22
ATOM     18  C   UNL     1      29.530   7.792  48.385  0.00  0.00    +0.000 C 
ATOM     19  N   UNL     1      28.534   6.888  48.962  0.00  0.00    +0.000 N 
ATOM     20  C   UNL     1      27.197   7.495  48.918  0.00  0.00    +0.000 C 
ATOM     21  C   UNL     1      26.145   6.576  49.547  0.00  0.00    +0.000 C 
ATOM     22  C   UNL     1      26.145   5.203  48.863  0.00  0.00    +0.000 C 
ATOM     23  C   UNL     1      27.563   4.617  48.881  0.00  0.00    +0.000 C 
ATOM     24  C   UNL     1      28.561   5.596  48.264  0.00  0.00    +0.000 C 
ATOM     25  H   UNL     1      28.765   6.724  49.942  0.00  0.00    +0.000 HD
ENDBRANCH  12  22
ENDBRANCH   1  15
BRANCH   7  26
ATOM     26  C   UNL     1      16.139   0.312  51.011  0.00  0.00    +0.000 C 
BRANCH  26  27
ATOM     27  C   UNL     1      15.383   0.719  52.319  0.00  0.00    +0.000 C 
ATOM     28  O   UNL     1      15.368  -0.025  53.308  0.00  0.00    +0.000 OA
ATOM     29  N   UNL     1      14.690   1.881  52.392  0.00  0.00    +0.000 N 
ATOM     30  C   UNL     1      14.596   2.795  51.376  0.00  0.00    +0.000 A 
ATOM     31  N   UNL     1      15.340   2.875  50.308  0.00  0.00    +0.000 NA
ATOM     32  C   UNL     1      14.904   3.895  49.503  0.00  0.00    +0.000 A 
ATOM     33  C   UNL     1      13.846   4.613  49.996  0.00  0.00    +0.000 A 
ATOM     34  S   UNL     1      13.348   3.947  51.509  0.00  0.00    +0.000 S 
ATOM     35  H   UNL     1      14.223   2.084  53.234  0.00  0.00    +0.000 HD
ENDBRANCH  26  27
BRANCH  26  36
ATOM     36  C   UNL     1      15.543  -0.855  50.221  0.00  0.00    +0.000 A 
ATOM     37  C   UNL     1      15.881  -0.963  48.857  0.00  0.00    +0.000 A 
ATOM     38  C   UNL     1      15.462  -2.053  48.099  0.00  0.00    +0.000 A 
ATOM     39  C   UNL     1      14.716  -3.063  48.697  0.00  0.00    +0.000 A 
ATOM     40  C   UNL     1      14.336  -2.951  50.035  0.00  0.00    +0.000 A 
ATOM     41  C   UNL     1      14.724  -1.841  50.789  0.00  0.00    +0.000 A 
ENDBRANCH  26  36
ENDBRANCH   7  26
TORSDOF 5
ENDMDL
MODEL 4
REMARK VINA RESULT:    -9.949      1.430      2.033
REMARK INTER + INTRA:         -13.450
REMARK INTER:                 -12.520
REMARK INTRA:                  -0.929
REMARK UNBOUND:                -0.593
REMARK  Name = 
REMARK  6 active torsions:
REMARK  status: ('A' for Active; 'I' for Inactive)
REMARK    1  A    between atoms: C_1  and  N_2
REMARK    2  A    between atoms: C_5  and  C_6
REMARK    3  A    between atoms: C_9  and  C_10
REMARK    4  A    between atoms: N_16  and  C_17
REMARK    5  A    between atoms: C_17  and  C_18
REMARK    6  A    between atoms: C_17  and  C_26
REMARK                            x       y       z     vdW  Elec       q    Type
REMARK                         _______ _______ _______ _____ _____    ______ ____
ROOT
ATOM      1  C   UNL     1      18.946   1.351  49.929  0.00  0.00    +0.000 A 
ATOM      2  C   UNL     1      18.667   2.459  49.126  0.00  0.00    +0.000 A 
ATOM      3  N   UNL     1      19.587   3.357  48.688  0.00  0.00    +0.000 NA
ATOM      4  C   UNL     1      20.859   3.172  49.096  0.00  0.00    +0.000 A 
ATOM      5  N   UNL     1      21.789   4.082  48.593  0.00  0.00    +0.000 NA
ATOM      6  C   UNL     1      22.980   4.030  49.085  0.00  0.00    +0.000 A 
ATOM      7  N   UNL     1      23.414   3.138  50.037  0.00  0.00    +0.000 N 
ATOM      8  C   UNL     1      22.587   2.111  50.457  0.00  0.00    +0.000 A 
ATOM      9  O   UNL     1      22.914   1.217  51.231  0.00  0.00    +0.000 OA
ATOM     10  C   UNL     1      21.222   2.147  49.942  0.00  0.00    +0.000 A 
ATOM     11  C   UNL     1      20.274   1.220  50.344  0.00  0.00    +0.000 A 
ENDROOT
BRANCH   1  15
ATOM     12  C   UNL     1      15.919  -1.361  51.344  0.00  0.00    +0.000 A 
ATOM     13  C   UNL     1      17.003  -1.011  52.152  0.00  0.00    +0.000 A 
ATOM     14  C   UNL     1      18.001  -0.163  51.680  0.00  0.00    +0.000 A 
ATOM     15  C   UNL     1      17.943   0.382  50.373  0.00  0.00    +0.000 A 
ATOM     16  C   UNL     1      16.865   0.003  49.562  0.00  0.00    +0.000 A 
ATOM     17  C   UNL     1      15.866  -0.846  50.040  0.00  0.00    +0.000 A 
BRANCH  12  22
ATOM     18  C   UNL     1      12.259  -4.453  54.528  0.00  0.00    +0.000 C 
ATOM     19  N   UNL     1      13.310  -3.572  54.014  0.00  0.00    +0.000 N 
ATOM     20  C   UNL     1      14.291  -4.340  53.234  0.00  0.00    +0.000 C 
ATOM     21  C   UNL     1      15.417  -3.440  52.714  0.00  0.00    +0.000 C 
ATOM     22  C   UNL     1      14.848  -2.281  51.888  0.00  0.00    +0.000 C 
ATOM     23  C   UNL     1      13.792  -1.530  52.709  0.00  0.00    +0.000 C 
ATOM     24  C   UNL     1      12.717  -2.491  53.216  0.00  0.00    +0.000 C 
ATOM     25  H   UNL     1      13.804  -3.153  54.801  0.00  0.00    +0.000 HD
ENDBRANCH  12  22
ENDBRANCH   1  15
BRANCH   7  26
ATOM     26  C   UNL     1      24.679   3.338  50.754  0.00  0.00    +0.000 C 
BRANCH  26  27
ATOM     27  C   UNL     1      24.397   3.597  52.272  0.00  0.00    +0.000 C 
ATOM     28  O   UNL     1      23.644   4.508  52.636  0.00  0.00    +0.000 OA
ATOM     29  N   UNL     1      25.002   2.855  53.231  0.00  0.00    +0.000 N 
ATOM     30  C   UNL     1      25.877   1.829  52.984  0.00  0.00    +0.000 A 
ATOM     31  N   UNL     1      26.068   1.203  51.855  0.00  0.00    +0.000 NA
ATOM     32  C   UNL     1      27.061   0.269  51.996  0.00  0.00    +0.000 A 
ATOM     33  C   UNL     1      27.591   0.168  53.256  0.00  0.00    +0.000 A 
ATOM     34  S   UNL     1      26.843   1.328  54.294  0.00  0.00    +0.000 S 
ATOM     35  H   UNL     1      24.799   3.067  54.170  0.00  0.00    +0.000 HD
ENDBRANCH  26  27
BRANCH  26  36
ATOM     36  C   UNL     1      25.576   4.359  50.049  0.00  0.00    +0.000 A 
ATOM     37  C   UNL     1      26.712   3.875  49.372  0.00  0.00    +0.000 A 
ATOM     38  C   UNL     1      27.517   4.727  48.622  0.00  0.00    +0.000 A 
ATOM     39  C   UNL     1      27.188   6.075  48.521  0.00  0.00    +0.000 A 
ATOM     40  C   UNL     1      26.092   6.580  49.221  0.00  0.00    +0.000 A 
ATOM     41  C   UNL     1      25.302   5.733  50.003  0.00  0.00    +0.000 A 
ENDBRANCH  26  36
ENDBRANCH   7  26
TORSDOF 5
ENDMDL
MODEL 5
REMARK VINA RESULT:    -9.914      3.970     10.699
REMARK INTER + INTRA:         -13.405
REMARK INTER:                 -12.049
REMARK INTRA:                  -1.356
REMARK UNBOUND:                -0.593
REMARK  Name = 
REMARK  6 active torsions:
REMARK  status: ('A' for Active; 'I' for Inactive)
REMARK    1  A    between atoms: C_1  and  N_2
REMARK    2  A    between atoms: C_5  and  C_6
REMARK    3  A    between atoms: C_9  and  C_10
REMARK    4  A    between atoms: N_16  and  C_17
REMARK    5  A    between atoms: C_17  and  C_18
REMARK    6  A    between atoms: C_17  and  C_26
REMARK                            x       y       z     vdW  Elec       q    Type
REMARK                         _______ _______ _______ _____ _____    ______ ____
ROOT
ATOM      1  C   UNL     1      21.419   2.154  51.974  0.00  0.00    +0.000 A 
ATOM      2  C   UNL     1      21.145   3.514  51.818  0.00  0.00    +0.000 A 
ATOM      3  N   UNL     1      19.901   4.057  51.749  0.00  0.00    +0.000 NA
ATOM      4  C   UNL     1      18.861   3.201  51.801  0.00  0.00    +0.000 A 
ATOM      5  N   UNL     1      17.597   3.790  51.776  0.00  0.00    +0.000 NA
ATOM      6  C   UNL     1      16.586   2.997  51.664  0.00  0.00    +0.000 A 
ATOM      7  N   UNL     1      16.649   1.625  51.601  0.00  0.00    +0.000 N 
ATOM      8  C   UNL     1      17.857   0.975  51.782  0.00  0.00    +0.000 A 
ATOM      9  O   UNL     1      17.999  -0.243  51.832  0.00  0.00    +0.000 OA
ATOM     10  C   UNL     1      19.030   1.836  51.887  0.00  0.00    +0.000 A 
ATOM     11  C   UNL     1      20.306   1.308  51.996  0.00  0.00    +0.000 A 
ENDROOT
BRANCH   1  15
ATOM     12  C   UNL     1      25.428   0.639  52.368  0.00  0.00    +0.000 A 
ATOM     13  C   UNL     1      25.161   1.767  51.590  0.00  0.00    +0.000 A 
ATOM     14  C   UNL     1      23.859   2.235  51.433  0.00  0.00    +0.000 A 
ATOM     15  C   UNL     1      22.767   1.591  52.067  0.00  0.00    +0.000 A 
ATOM     16  C   UNL     1      23.043   0.445  52.823  0.00  0.00    +0.000 A 
ATOM     17  C   UNL     1      24.350  -0.019  52.979  0.00  0.00    +0.000 A 
BRANCH  12  22
ATOM     18  C   UNL     1      30.477  -1.485  54.124  0.00  0.00    +0.000 C 
ATOM     19  N   UNL     1      29.099  -1.009  53.990  0.00  0.00    +0.000 N 
ATOM     20  C   UNL     1      29.076   0.429  53.687  0.00  0.00    +0.000 C 
ATOM     21  C   UNL     1      27.641   0.953  53.575  0.00  0.00    +0.000 C 
ATOM     22  C   UNL     1      26.854   0.159  52.524  0.00  0.00    +0.000 C 
ATOM     23  C   UNL     1      26.938  -1.340  52.839  0.00  0.00    +0.000 C 
ATOM     24  C   UNL     1      28.394  -1.786  52.962  0.00  0.00    +0.000 C 
ATOM     25  H   UNL     1      28.615  -1.144  54.877  0.00  0.00    +0.000 HD
ENDBRANCH  12  22
ENDBRANCH   1  15
BRANCH   7  26
ATOM     26  C   UNL     1      15.495   0.824  51.175  0.00  0.00    +0.000 C 
BRANCH  26  27
ATOM     27  C   UNL     1      15.526   0.626  49.622  0.00  0.00    +0.000 C 
ATOM     28  O   UNL     1      15.751   1.575  48.861  0.00  0.00    +0.000 OA
ATOM     29  N   UNL     1      15.268  -0.583  49.068  0.00  0.00    +0.000 N 
ATOM     30  C   UNL     1      14.981  -1.719  49.778  0.00  0.00    +0.000 A 
ATOM     31  N   UNL     1      15.173  -1.930  51.051  0.00  0.00    +0.000 NA
ATOM     32  C   UNL     1      14.713  -3.173  51.399  0.00  0.00    +0.000 A 
ATOM     33  C   UNL     1      14.208  -3.917  50.365  0.00  0.00    +0.000 A 
ATOM     34  S   UNL     1      14.269  -2.997  48.904  0.00  0.00    +0.000 S 
ATOM     35  H   UNL     1      15.289  -0.650  48.086  0.00  0.00    +0.000 HD
ENDBRANCH  26  27
BRANCH  26  36
ATOM     36  C   UNL     1      14.186   1.357  51.762  0.00  0.00    +0.000 A 
ATOM     37  C   UNL     1      13.916   1.082  53.117  0.00  0.00    +0.000 A 
ATOM     38  C   UNL     1      12.799   1.619  53.749  0.00  0.00    +0.000 A 
ATOM     39  C   UNL     1      11.943   2.458  53.043  0.00  0.00    +0.000 A 
ATOM     40  C   UNL     1      12.172   2.707  51.689  0.00  0.00    +0.000 A 
ATOM     41  C   UNL     1      13.273   2.140  51.042  0.00  0.00    +0.000 A 
ENDBRANCH  26  36
ENDBRANCH   7  26
TORSDOF 5
ENDMDL
MODEL 6
REMARK VINA RESULT:    -9.775      4.755     10.813
REMARK INTER + INTRA:         -13.224
REMARK INTER:                 -12.066
REMARK INTRA:                  -1.159
REMARK UNBOUND:                -0.593
REMARK  Name = 
REMARK  6 active torsions:
REMARK  status: ('A' for Active; 'I' for Inactive)
REMARK    1  A    between atoms: C_1  and  N_2
REMARK    2  A    between atoms: C_5  and  C_6
REMARK    3  A    between atoms: C_9  and  C_10
REMARK    4  A    between atoms: N_16  and  C_17
REMARK    5  A    between atoms: C_17  and  C_18
REMARK    6  A    between atoms: C_17  and  C_26
REMARK                            x       y       z     vdW  Elec       q    Type
REMARK                         _______ _______ _______ _____ _____    ______ ____
ROOT
ATOM      1  C   UNL     1      19.598  -0.544  52.716  0.00  0.00    +0.000 A 
ATOM      2  C   UNL     1      19.023  -1.514  53.540  0.00  0.00    +0.000 A 
ATOM      3  N   UNL     1      17.720  -1.899  53.500  0.00  0.00    +0.000 NA
ATOM      4  C   UNL     1      16.925  -1.262  52.617  0.00  0.00    +0.000 A 
ATOM      5  N   UNL     1      15.605  -1.709  52.566  0.00  0.00    +0.000 NA
ATOM      6  C   UNL     1      14.783  -1.020  51.850  0.00  0.00    +0.000 A 
ATOM      7  N   UNL     1      15.105   0.095  51.113  0.00  0.00    +0.000 N 
ATOM      8  C   UNL     1      16.425   0.493  50.994  0.00  0.00    +0.000 A 
ATOM      9  O   UNL     1      16.819   1.417  50.289  0.00  0.00    +0.000 OA
ATOM     10  C   UNL     1      17.384  -0.245  51.808  0.00  0.00    +0.000 A 
ATOM     11  C   UNL     1      18.725   0.103  51.837  0.00  0.00    +0.000 A 
ENDROOT
BRANCH   1  15
ATOM     12  C   UNL     1      23.792   0.420  52.770  0.00  0.00    +0.000 A 
ATOM     13  C   UNL     1      23.245  -0.453  53.712  0.00  0.00    +0.000 A 
ATOM     14  C   UNL     1      21.882  -0.736  53.717  0.00  0.00    +0.000 A 
ATOM     15  C   UNL     1      21.009  -0.159  52.760  0.00  0.00    +0.000 A 
ATOM     16  C   UNL     1      21.565   0.736  51.837  0.00  0.00    +0.000 A 
ATOM     17  C   UNL     1      22.932   1.014  51.835  0.00  0.00    +0.000 A 
BRANCH  12  22
ATOM     18  C   UNL     1      29.359   1.125  54.035  0.00  0.00    +0.000 C 
ATOM     19  N   UNL     1      27.919   0.864  54.035  0.00  0.00    +0.000 N 
ATOM     20  C   UNL     1      27.172   2.088  53.713  0.00  0.00    +0.000 C 
ATOM     21  C   UNL     1      25.660   1.842  53.739  0.00  0.00    +0.000 C 
ATOM     22  C   UNL     1      25.278   0.702  52.787  0.00  0.00    +0.000 C 
ATOM     23  C   UNL     1      26.109  -0.545  53.116  0.00  0.00    +0.000 C 
ATOM     24  C   UNL     1      27.602  -0.221  53.097  0.00  0.00    +0.000 C 
ATOM     25  H   UNL     1      27.636   0.569  54.970  0.00  0.00    +0.000 HD
ENDBRANCH  12  22
ENDBRANCH   1  15
BRANCH   7  26
ATOM     26  C   UNL     1      14.067   0.985  50.578  0.00  0.00    +0.000 C 
BRANCH  26  27
ATOM     27  C   UNL     1      12.736   0.796  51.380  0.00  0.00    +0.000 C 
ATOM     28  O   UNL     1      11.916  -0.074  51.063  0.00  0.00    +0.000 OA
ATOM     29  N   UNL     1      12.428   1.607  52.421  0.00  0.00    +0.000 N 
ATOM     30  C   UNL     1      13.223   2.627  52.874  0.00  0.00    +0.000 A 
ATOM     31  N   UNL     1      14.485   2.827  52.611  0.00  0.00    +0.000 NA
ATOM     32  C   UNL     1      14.916   3.980  53.213  0.00  0.00    +0.000 A 
ATOM     33  C   UNL     1      13.975   4.628  53.970  0.00  0.00    +0.000 A 
ATOM     34  S   UNL     1      12.474   3.779  53.881  0.00  0.00    +0.000 S 
ATOM     35  H   UNL     1      11.573   1.453  52.884  0.00  0.00    +0.000 HD
ENDBRANCH  26  27
BRANCH  26  36
ATOM     36  C   UNL     1      13.959   0.880  49.055  0.00  0.00    +0.000 A 
ATOM     37  C   UNL     1      13.783   2.073  48.327  0.00  0.00    +0.000 A 
ATOM     38  C   UNL     1      13.779   2.070  46.935  0.00  0.00    +0.000 A 
ATOM     39  C   UNL     1      13.973   0.876  46.247  0.00  0.00    +0.000 A 
ATOM     40  C   UNL     1      14.106  -0.321  46.952  0.00  0.00    +0.000 A 
ATOM     41  C   UNL     1      14.074  -0.326  48.348  0.00  0.00    +0.000 A 
ENDBRANCH  26  36
ENDBRANCH   7  26
TORSDOF 5
ENDMDL
MODEL 7
REMARK VINA RESULT:    -9.762      4.206     11.899
REMARK INTER + INTRA:         -13.208
REMARK INTER:                 -11.841
REMARK INTRA:                  -1.367
REMARK UNBOUND:                -0.593
REMARK  Name = 
REMARK  6 active torsions:
REMARK  status: ('A' for Active; 'I' for Inactive)
REMARK    1  A    between atoms: C_1  and  N_2
REMARK    2  A    between atoms: C_5  and  C_6
REMARK    3  A    between atoms: C_9  and  C_10
REMARK    4  A    between atoms: N_16  and  C_17
REMARK    5  A    between atoms: C_17  and  C_18
REMARK    6  A    between atoms: C_17  and  C_26
REMARK                            x       y       z     vdW  Elec       q    Type
REMARK                         _______ _______ _______ _____ _____    ______ ____
ROOT
ATOM      1  C   UNL     1      21.209   0.842  51.619  0.00  0.00    +0.000 A 
ATOM      2  C   UNL     1      21.327   0.278  52.891  0.00  0.00    +0.000 A 
ATOM      3  N   UNL     1      20.367  -0.456  53.512  0.00  0.00    +0.000 NA
ATOM      4  C   UNL     1      19.202  -0.615  52.852  0.00  0.00    +0.000 A 
ATOM      5  N   UNL     1      18.253  -1.412  53.492  0.00  0.00    +0.000 NA
ATOM      6  C   UNL     1      17.077  -1.455  52.966  0.00  0.00    +0.000 A 
ATOM      7  N   UNL     1      16.691  -0.809  51.815  0.00  0.00    +0.000 N 
ATOM      8  C   UNL     1      17.626  -0.136  51.049  0.00  0.00    +0.000 A 
ATOM      9  O   UNL     1      17.397   0.393  49.965  0.00  0.00    +0.000 OA
ATOM     10  C   UNL     1      18.965  -0.042  51.621  0.00  0.00    +0.000 A 
ATOM     11  C   UNL     1      19.972   0.669  50.990  0.00  0.00    +0.000 A 
ENDROOT
BRANCH   1  15
ATOM     12  C   UNL     1      24.221   3.268  49.731  0.00  0.00    +0.000 A 
ATOM     13  C   UNL     1      22.965   3.098  49.144  0.00  0.00    +0.000 A 
ATOM     14  C   UNL     1      22.004   2.283  49.737  0.00  0.00    +0.000 A 
ATOM     15  C   UNL     1      22.263   1.613  50.958  0.00  0.00    +0.000 A 
ATOM     16  C   UNL     1      23.535   1.769  51.524  0.00  0.00    +0.000 A 
ATOM     17  C   UNL     1      24.494   2.588  50.927  0.00  0.00    +0.000 A 
BRANCH  12  22
ATOM     18  C   UNL     1      28.414   6.967  48.384  0.00  0.00    +0.000 C 
ATOM     19  N   UNL     1      27.420   6.116  49.039  0.00  0.00    +0.000 N 
ATOM     20  C   UNL     1      26.061   6.512  48.645  0.00  0.00    +0.000 C 
ATOM     21  C   UNL     1      25.003   5.653  49.345  0.00  0.00    +0.000 C 
ATOM     22  C   UNL     1      25.242   4.164  49.065  0.00  0.00    +0.000 C 
ATOM     23  C   UNL     1      26.682   3.792  49.440  0.00  0.00    +0.000 C 
ATOM     24  C   UNL     1      27.679   4.704  48.727  0.00  0.00    +0.000 C 
ATOM     25  H   UNL     1      27.494   6.237  50.049  0.00  0.00    +0.000 HD
ENDBRANCH  12  22
ENDBRANCH   1  15
BRANCH   7  26
ATOM     26  C   UNL     1      15.276  -0.666  51.455  0.00  0.00    +0.000 C 
BRANCH  26  27
ATOM     27  C   UNL     1      14.653   0.556  52.210  0.00  0.00    +0.000 C 
ATOM     28  O   UNL     1      14.799   0.695  53.431  0.00  0.00    +0.000 OA
ATOM     29  N   UNL     1      13.903   1.474  51.554  0.00  0.00    +0.000 N 
ATOM     30  C   UNL     1      13.635   1.442  50.210  0.00  0.00    +0.000 A 
ATOM     31  N   UNL     1      14.244   0.739  49.296  0.00  0.00    +0.000 NA
ATOM     32  C   UNL     1      13.655   0.942  48.075  0.00  0.00    +0.000 A 
ATOM     33  C   UNL     1      12.619   1.839  48.070  0.00  0.00    +0.000 A 
ATOM     34  S   UNL     1      12.342   2.414  49.675  0.00  0.00    +0.000 S 
ATOM     35  H   UNL     1      13.526   2.216  52.078  0.00  0.00    +0.000 HD
ENDBRANCH  26  27
BRANCH  26  36
ATOM     36  C   UNL     1      14.521  -1.992  51.578  0.00  0.00    +0.000 A 
ATOM     37  C   UNL     1      14.789  -2.989  50.620  0.00  0.00    +0.000 A 
ATOM     38  C   UNL     1      14.222  -4.256  50.725  0.00  0.00    +0.000 A 
ATOM     39  C   UNL     1      13.392  -4.552  51.801  0.00  0.00    +0.000 A 
ATOM     40  C   UNL     1      13.081  -3.564  52.736  0.00  0.00    +0.000 A 
ATOM     41  C   UNL     1      13.621  -2.281  52.613  0.00  0.00    +0.000 A 
ENDBRANCH  26  36
ENDBRANCH   7  26
TORSDOF 5
ENDMDL
MODEL 8
REMARK VINA RESULT:    -9.699      4.363     11.532
REMARK INTER + INTRA:         -13.127
REMARK INTER:                 -12.101
REMARK INTRA:                  -1.026
REMARK UNBOUND:                -0.593
REMARK  Name = 
REMARK  6 active torsions:
REMARK  status: ('A' for Active; 'I' for Inactive)
REMARK    1  A    between atoms: C_1  and  N_2
REMARK    2  A    between atoms: C_5  and  C_6
REMARK    3  A    between atoms: C_9  and  C_10
REMARK    4  A    between atoms: N_16  and  C_17
REMARK    5  A    between atoms: C_17  and  C_18
REMARK    6  A    between atoms: C_17  and  C_26
REMARK                            x       y       z     vdW  Elec       q    Type
REMARK                         _______ _______ _______ _____ _____    ______ ____
ROOT
ATOM      1  C   UNL     1      21.196   0.985  51.521  0.00  0.00    +0.000 A 
ATOM      2  C   UNL     1      21.299   0.312  52.740  0.00  0.00    +0.000 A 
ATOM      3  N   UNL     1      20.311  -0.425  53.312  0.00  0.00    +0.000 NA
ATOM      4  C   UNL     1      19.134  -0.473  52.657  0.00  0.00    +0.000 A 
ATOM      5  N   UNL     1      18.154  -1.275  53.243  0.00  0.00    +0.000 NA
ATOM      6  C   UNL     1      16.972  -1.219  52.732  0.00  0.00    +0.000 A 
ATOM      7  N   UNL     1      16.606  -0.461  51.644  0.00  0.00    +0.000 N 
ATOM      8  C   UNL     1      17.565   0.229  50.923  0.00  0.00    +0.000 A 
ATOM      9  O   UNL     1      17.351   0.855  49.889  0.00  0.00    +0.000 OA
ATOM     10  C   UNL     1      18.912   0.210  51.482  0.00  0.00    +0.000 A 
ATOM     11  C   UNL     1      19.946   0.924  50.897  0.00  0.00    +0.000 A 
ENDROOT
BRANCH   1  15
ATOM     12  C   UNL     1      24.264   3.404  49.718  0.00  0.00    +0.000 A 
ATOM     13  C   UNL     1      23.227   2.873  48.950  0.00  0.00    +0.000 A 
ATOM     14  C   UNL     1      22.255   2.060  49.527  0.00  0.00    +0.000 A 
ATOM     15  C   UNL     1      22.279   1.757  50.912  0.00  0.00    +0.000 A 
ATOM     16  C   UNL     1      23.340   2.273  51.667  0.00  0.00    +0.000 A 
ATOM     17  C   UNL     1      24.310   3.089  51.085  0.00  0.00    +0.000 A 
BRANCH  12  22
ATOM     18  C   UNL     1      28.559   7.001  48.412  0.00  0.00    +0.000 C 
ATOM     19  N   UNL     1      27.549   6.161  49.058  0.00  0.00    +0.000 N 
ATOM     20  C   UNL     1      26.197   6.621  48.713  0.00  0.00    +0.000 C 
ATOM     21  C   UNL     1      25.125   5.773  49.405  0.00  0.00    +0.000 C 
ATOM     22  C   UNL     1      25.302   4.289  49.063  0.00  0.00    +0.000 C 
ATOM     23  C   UNL     1      26.736   3.851  49.387  0.00  0.00    +0.000 C 
ATOM     24  C   UNL     1      27.749   4.755  48.685  0.00  0.00    +0.000 C 
ATOM     25  H   UNL     1      27.651   6.240  50.069  0.00  0.00    +0.000 HD
ENDBRANCH  12  22
ENDBRANCH   1  15
BRANCH   7  26
ATOM     26  C   UNL     1      15.195  -0.222  51.316  0.00  0.00    +0.000 C 
BRANCH  26  27
ATOM     27  C   UNL     1      14.287  -0.668  52.510  0.00  0.00    +0.000 C 
ATOM     28  O   UNL     1      14.080  -1.864  52.745  0.00  0.00    +0.000 OA
ATOM     29  N   UNL     1      13.670   0.247  53.297  0.00  0.00    +0.000 N 
ATOM     30  C   UNL     1      13.784   1.604  53.148  0.00  0.00    +0.000 A 
ATOM     31  N   UNL     1      14.678   2.255  52.456  0.00  0.00    +0.000 NA
ATOM     32  C   UNL     1      14.432   3.602  52.513  0.00  0.00    +0.000 A 
ATOM     33  C   UNL     1      13.364   3.966  53.291  0.00  0.00    +0.000 A 
ATOM     34  S   UNL     1      12.609   2.553  53.937  0.00  0.00    +0.000 S 
ATOM     35  H   UNL     1      13.100  -0.086  54.027  0.00  0.00    +0.000 HD
ENDBRANCH  26  27
BRANCH  26  36
ATOM     36  C   UNL     1      14.828  -0.785  49.941  0.00  0.00    +0.000 A 
ATOM     37  C   UNL     1      14.025   0.011  49.101  0.00  0.00    +0.000 A 
ATOM     38  C   UNL     1      13.735  -0.387  47.799  0.00  0.00    +0.000 A 
ATOM     39  C   UNL     1      14.261  -1.578  47.309  0.00  0.00    +0.000 A 
ATOM     40  C   UNL     1      15.022  -2.399  48.140  0.00  0.00    +0.000 A 
ATOM     41  C   UNL     1      15.285  -2.020  49.459  0.00  0.00    +0.000 A 
ENDBRANCH  26  36
ENDBRANCH   7  26
TORSDOF 5
ENDMDL
MODEL 9
REMARK VINA RESULT:    -9.428      4.056     12.284
REMARK INTER + INTRA:         -12.777
REMARK INTER:                 -11.648
REMARK INTRA:                  -1.129
REMARK UNBOUND:                -0.593
REMARK  Name = 
REMARK  6 active torsions:
REMARK  status: ('A' for Active; 'I' for Inactive)
REMARK    1  A    between atoms: C_1  and  N_2
REMARK    2  A    between atoms: C_5  and  C_6
REMARK    3  A    between atoms: C_9  and  C_10
REMARK    4  A    between atoms: N_16  and  C_17
REMARK    5  A    between atoms: C_17  and  C_18
REMARK    6  A    between atoms: C_17  and  C_26
REMARK                            x       y       z     vdW  Elec       q    Type
REMARK                         _______ _______ _______ _____ _____    ______ ____
ROOT
ATOM      1  C   UNL     1      23.947   2.992  50.103  0.00  0.00    +0.000 A 
ATOM      2  C   UNL     1      24.131   2.111  51.172  0.00  0.00    +0.000 A 
ATOM      3  N   UNL     1      23.170   1.303  51.691  0.00  0.00    +0.000 NA
ATOM      4  C   UNL     1      21.940   1.394  51.146  0.00  0.00    +0.000 A 
ATOM      5  N   UNL     1      20.987   0.520  51.668  0.00  0.00    +0.000 NA
ATOM      6  C   UNL     1      19.768   0.688  51.282  0.00  0.00    +0.000 A 
ATOM      7  N   UNL     1      19.337   1.633  50.381  0.00  0.00    +0.000 N 
ATOM      8  C   UNL     1      20.255   2.422  49.709  0.00  0.00    +0.000 A 
ATOM      9  O   UNL     1      19.976   3.227  48.825  0.00  0.00    +0.000 OA
ATOM     10  C   UNL     1      21.644   2.280  50.134  0.00  0.00    +0.000 A 
ATOM     11  C   UNL     1      22.648   3.066  49.593  0.00  0.00    +0.000 A 
ENDROOT
BRANCH   1  15
ATOM     12  C   UNL     1      27.049   5.583  48.623  0.00  0.00    +0.000 A 
ATOM     13  C   UNL     1      25.725   6.018  48.697  0.00  0.00    +0.000 A 
ATOM     14  C   UNL     1      24.716   5.168  49.141  0.00  0.00    +0.000 A 
ATOM     15  C   UNL     1      25.001   3.839  49.545  0.00  0.00    +0.000 A 
ATOM     16  C   UNL     1      26.328   3.404  49.442  0.00  0.00    +0.000 A 
ATOM     17  C   UNL     1      27.336   4.261  48.998  0.00  0.00    +0.000 A 
BRANCH  12  22
ATOM     18  C   UNL     1      31.552   9.102  47.977  0.00  0.00    +0.000 C 
ATOM     19  N   UNL     1      30.508   8.196  48.458  0.00  0.00    +0.000 N 
ATOM     20  C   UNL     1      29.183   8.815  48.320  0.00  0.00    +0.000 C 
ATOM     21  C   UNL     1      28.079   7.893  48.849  0.00  0.00    +0.000 C 
ATOM     22  C   UNL     1      28.123   6.532  48.142  0.00  0.00    +0.000 C 
ATOM     23  C   UNL     1      29.531   5.935  48.260  0.00  0.00    +0.000 C 
ATOM     24  C   UNL     1      30.581   6.916  47.740  0.00  0.00    +0.000 C 
ATOM     25  H   UNL     1      30.661   8.013  49.449  0.00  0.00    +0.000 HD
ENDBRANCH  12  22
ENDBRANCH   1  15
BRANCH   7  26
ATOM     26  C   UNL     1      17.913   1.954  50.228  0.00  0.00    +0.000 C 
BRANCH  26  27
ATOM     27  C   UNL     1      17.607   3.347  50.872  0.00  0.00    +0.000 C 
ATOM     28  O   UNL     1      18.028   3.638  51.999  0.00  0.00    +0.000 OA
ATOM     29  N   UNL     1      16.839   4.260  50.230  0.00  0.00    +0.000 N 
ATOM     30  C   UNL     1      16.285   4.075  48.990  0.00  0.00    +0.000 A 
ATOM     31  N   UNL     1      16.600   3.169  48.107  0.00  0.00    +0.000 NA
ATOM     32  C   UNL     1      15.787   3.277  47.009  0.00  0.00    +0.000 A 
ATOM     33  C   UNL     1      14.880   4.303  47.055  0.00  0.00    +0.000 A 
ATOM     34  S   UNL     1      15.022   5.135  48.562  0.00  0.00    +0.000 S 
ATOM     35  H   UNL     1      16.668   5.116  50.684  0.00  0.00    +0.000 HD
ENDBRANCH  26  27
BRANCH  26  36
ATOM     36  C   UNL     1      17.019   0.794  50.672  0.00  0.00    +0.000 A 
ATOM     37  C   UNL     1      16.562  -0.097  49.680  0.00  0.00    +0.000 A 
ATOM     38  C   UNL     1      15.832  -1.232  50.018  0.00  0.00    +0.000 A 
ATOM     39  C   UNL     1      15.565  -1.508  51.355  0.00  0.00    +0.000 A 
ATOM     40  C   UNL     1      15.973  -0.615  52.347  0.00  0.00    +0.000 A 
ATOM     41  C   UNL     1      16.675   0.544  52.008  0.00  0.00    +0.000 A 
ENDBRANCH  26  36
ENDBRANCH   7  26
TORSDOF 5
ENDMDL
