MODEL 1
REMARK VINA RESULT:    -8.197      0.000      0.000
REMARK INTER + INTRA:         -12.810
REMARK INTER:                 -11.552
REMARK INTRA:                  -1.259
REMARK UNBOUND:                -1.259
REMARK  Name = 
REMARK  9 active torsions:
REMARK  status: ('A' for Active; 'I' for Inactive)
REMARK    1  A    between atoms: C_1  and  C_2
REMARK    2  A    between atoms: C_2  and  O_3
REMARK    3  A    between atoms: O_3  and  C_4
REMARK    4  A    between atoms: C_10  and  N_11
REMARK    5  A    between atoms: N_11  and  C_12
REMARK    6  A    between atoms: C_16  and  C_17
REMARK    7  A    between atoms: C_25  and  O_26
REMARK    8  A    between atoms: O_26  and  C_27
REMARK    9  A    between atoms: C_27  and  C_28
REMARK                            x       y       z     vdW  Elec       q    Type
REMARK                         _______ _______ _______ _____ _____    ______ ____
ROOT
ATOM      1  C   UNL     1      26.567   0.238  53.200  0.00  0.00    +0.000 A 
ATOM      2  C   UNL     1      27.163   1.138  52.311  0.00  0.00    +0.000 A 
ATOM      3  C   UNL     1      26.431   2.115  51.644  0.00  0.00    +0.000 A 
ATOM      4  N   UNL     1      27.072   2.920  50.794  0.00  0.00    +0.000 NA
ATOM      5  C   UNL     1      26.335   3.840  50.160  0.00  0.00    +0.000 A 
ATOM      6  N   UNL     1      25.016   4.021  50.286  0.00  0.00    +0.000 NA
ATOM      7  C   UNL     1      24.367   3.203  51.133  0.00  0.00    +0.000 A 
ATOM      8  C   UNL     1      25.050   2.211  51.877  0.00  0.00    +0.000 A 
ATOM      9  C   UNL     1      24.450   1.314  52.797  0.00  0.00    +0.000 A 
ATOM     10  C   UNL     1      25.193   0.311  53.421  0.00  0.00    +0.000 A 
ENDROOT
BRANCH   7  11
ATOM     11  N   UNL     1      22.968   3.401  51.357  0.00  0.00    +0.000 N 
ATOM     12  H   UNL     1      22.722   4.084  52.021  0.00  0.00    +0.000 HD
BRANCH  11  13
ATOM     13  C   UNL     1      21.893   2.715  50.723  0.00  0.00    +0.000 A 
ATOM     14  C   UNL     1      21.795   2.588  49.334  0.00  0.00    +0.000 A 
ATOM     15  C   UNL     1      20.845   1.741  48.762  0.00  0.00    +0.000 A 
ATOM     16  C   UNL     1      20.001   0.988  49.578  0.00  0.00    +0.000 A 
ATOM     17  C   UNL     1      20.087   1.070  50.975  0.00  0.00    +0.000 A 
ATOM     18  C   UNL     1      21.044   1.937  51.531  0.00  0.00    +0.000 A 
BRANCH  17  19
ATOM     19  C   UNL     1      19.228   0.193  51.790  0.00  0.00    +0.000 A 
ATOM     20  N   UNL     1      19.625  -0.388  52.909  0.00  0.00    +0.000 NA
ATOM     21  C   UNL     1      18.603  -1.139  53.450  0.00  0.00    +0.000 A 
ATOM     22  C   UNL     1      17.432  -1.154  52.725  0.00  0.00    +0.000 A 
ATOM     23  S   UNL     1      17.610  -0.187  51.323  0.00  0.00    +0.000 S 
ENDBRANCH  17  19
ENDBRANCH  11  13
ENDBRANCH   7  11
BRANCH   1  24
ATOM     24  O   UNL     1      27.292  -0.780  53.754  0.00  0.00    +0.000 OA
BRANCH  24  26
ATOM     25  C   UNL     1      29.644  -1.263  53.542  0.00  0.00    +0.000 C 
ATOM     26  C   UNL     1      28.590  -0.408  54.225  0.00  0.00    +0.000 C 
ENDBRANCH  24  26
ENDBRANCH   1  24
BRANCH  10  27
ATOM     27  O   UNL     1      24.489  -0.489  54.278  0.00  0.00    +0.000 OA
BRANCH  27  28
ATOM     28  C   UNL     1      23.160  -0.776  53.835  0.00  0.00    +0.000 C 
ATOM     29  C   UNL     1      22.354  -1.234  55.038  0.00  0.00    +0.000 C 
ENDBRANCH  27  28
ENDBRANCH  10  27
TORSDOF 7
ENDMDL
MODEL 2
REMARK VINA RESULT:    -7.857      3.030      5.507
REMARK INTER + INTRA:         -12.331
REMARK INTER:                 -11.385
REMARK INTRA:                  -0.946
REMARK UNBOUND:                -1.259
REMARK  Name = 
REMARK  9 active torsions:
REMARK  status: ('A' for Active; 'I' for Inactive)
REMARK    1  A    between atoms: C_1  and  C_2
REMARK    2  A    between atoms: C_2  and  O_3
REMARK    3  A    between atoms: O_3  and  C_4
REMARK    4  A    between atoms: C_10  and  N_11
REMARK    5  A    between atoms: N_11  and  C_12
REMARK    6  A    between atoms: C_16  and  C_17
REMARK    7  A    between atoms: C_25  and  O_26
REMARK    8  A    between atoms: O_26  and  C_27
REMARK    9  A    between atoms: C_27  and  C_28
REMARK                            x       y       z     vdW  Elec       q    Type
REMARK                         _______ _______ _______ _____ _____    ______ ____
ROOT
ATOM      1  C   UNL     1      27.188   1.269  52.679  0.00  0.00    +0.000 A 
ATOM      2  C   UNL     1      26.417   0.373  53.427  0.00  0.00    +0.000 A 
ATOM      3  C   UNL     1      25.026   0.388  53.396  0.00  0.00    +0.000 A 
ATOM      4  N   UNL     1      24.364  -0.485  54.159  0.00  0.00    +0.000 NA
ATOM      5  C   UNL     1      23.027  -0.436  54.115  0.00  0.00    +0.000 A 
ATOM      6  N   UNL     1      22.291   0.415  53.391  0.00  0.00    +0.000 NA
ATOM      7  C   UNL     1      22.956   1.303  52.632  0.00  0.00    +0.000 A 
ATOM      8  C   UNL     1      24.371   1.324  52.581  0.00  0.00    +0.000 A 
ATOM      9  C   UNL     1      25.153   2.216  51.804  0.00  0.00    +0.000 A 
ATOM     10  C   UNL     1      26.546   2.216  51.883  0.00  0.00    +0.000 A 
ENDROOT
BRANCH   7  11
ATOM     11  N   UNL     1      22.216   2.189  51.787  0.00  0.00    +0.000 N 
ATOM     12  H   UNL     1      21.585   2.797  52.234  0.00  0.00    +0.000 HD
BRANCH  11  13
ATOM     13  C   UNL     1      22.294   2.285  50.368  0.00  0.00    +0.000 A 
ATOM     14  C   UNL     1      21.809   1.286  49.518  0.00  0.00    +0.000 A 
ATOM     15  C   UNL     1      21.718   1.506  48.143  0.00  0.00    +0.000 A 
ATOM     16  C   UNL     1      22.082   2.741  47.608  0.00  0.00    +0.000 A 
ATOM     17  C   UNL     1      22.549   3.775  48.432  0.00  0.00    +0.000 A 
ATOM     18  C   UNL     1      22.644   3.530  49.814  0.00  0.00    +0.000 A 
BRANCH  17  19
ATOM     19  C   UNL     1      22.843   5.085  47.827  0.00  0.00    +0.000 A 
ATOM     20  N   UNL     1      22.362   5.479  46.661  0.00  0.00    +0.000 NA
ATOM     21  C   UNL     1      22.803   6.751  46.363  0.00  0.00    +0.000 A 
ATOM     22  C   UNL     1      23.648   7.317  47.291  0.00  0.00    +0.000 A 
ATOM     23  S   UNL     1      23.891   6.226  48.589  0.00  0.00    +0.000 S 
ENDBRANCH  17  19
ENDBRANCH  11  13
ENDBRANCH   7  11
BRANCH   1  24
ATOM     24  O   UNL     1      28.547   1.303  52.815  0.00  0.00    +0.000 OA
BRANCH  24  26
ATOM     25  C   UNL     1      29.958  -0.484  53.608  0.00  0.00    +0.000 C 
ATOM     26  C   UNL     1      29.050   0.672  53.995  0.00  0.00    +0.000 C 
ENDBRANCH  24  26
ENDBRANCH   1  24
BRANCH  10  27
ATOM     27  O   UNL     1      27.175   3.133  51.087  0.00  0.00    +0.000 OA
BRANCH  27  28
ATOM     28  C   UNL     1      26.529   3.340  49.828  0.00  0.00    +0.000 C 
ATOM     29  C   UNL     1      27.271   4.446  49.098  0.00  0.00    +0.000 C 
ENDBRANCH  27  28
ENDBRANCH  10  27
TORSDOF 7
ENDMDL
MODEL 3
REMARK VINA RESULT:    -7.819      1.689      1.803
REMARK INTER + INTRA:         -12.278
REMARK INTER:                 -11.286
REMARK INTRA:                  -0.992
REMARK UNBOUND:                -1.259
REMARK  Name = 
REMARK  9 active torsions:
REMARK  status: ('A' for Active; 'I' for Inactive)
REMARK    1  A    between atoms: C_1  and  C_2
REMARK    2  A    between atoms: C_2  and  O_3
REMARK    3  A    between atoms: O_3  and  C_4
REMARK    4  A    between atoms: C_10  and  N_11
REMARK    5  A    between atoms: N_11  and  C_12
REMARK    6  A    between atoms: C_16  and  C_17
REMARK    7  A    between atoms: C_25  and  O_26
REMARK    8  A    between atoms: O_26  and  C_27
REMARK    9  A    between atoms: C_27  and  C_28
REMARK                            x       y       z     vdW  Elec       q    Type
REMARK                         _______ _______ _______ _____ _____    ______ ____
ROOT
ATOM      1  C   UNL     1      26.473   0.184  53.258  0.00  0.00    +0.000 A 
ATOM      2  C   UNL     1      27.088   1.067  52.365  0.00  0.00    +0.000 A 
ATOM      3  C   UNL     1      26.379   2.061  51.698  0.00  0.00    +0.000 A 
ATOM      4  N   UNL     1      27.038   2.847  50.844  0.00  0.00    +0.000 NA
ATOM      5  C   UNL     1      26.323   3.784  50.209  0.00  0.00    +0.000 A 
ATOM      6  N   UNL     1      25.009   3.998  50.338  0.00  0.00    +0.000 NA
ATOM      7  C   UNL     1      24.341   3.198  51.188  0.00  0.00    +0.000 A 
ATOM      8  C   UNL     1      25.002   2.191  51.933  0.00  0.00    +0.000 A 
ATOM      9  C   UNL     1      24.382   1.311  52.856  0.00  0.00    +0.000 A 
ATOM     10  C   UNL     1      25.101   0.291  53.481  0.00  0.00    +0.000 A 
ENDROOT
BRANCH   7  11
ATOM     11  N   UNL     1      22.948   3.430  51.414  0.00  0.00    +0.000 N 
ATOM     12  H   UNL     1      22.720   4.094  52.104  0.00  0.00    +0.000 HD
BRANCH  11  13
ATOM     13  C   UNL     1      21.855   2.804  50.750  0.00  0.00    +0.000 A 
ATOM     14  C   UNL     1      22.024   1.731  49.869  0.00  0.00    +0.000 A 
ATOM     15  C   UNL     1      20.922   1.017  49.399  0.00  0.00    +0.000 A 
ATOM     16  C   UNL     1      19.638   1.349  49.832  0.00  0.00    +0.000 A 
ATOM     17  C   UNL     1      19.432   2.402  50.735  0.00  0.00    +0.000 A 
ATOM     18  C   UNL     1      20.556   3.116  51.188  0.00  0.00    +0.000 A 
BRANCH  17  19
ATOM     19  C   UNL     1      18.066   2.659  51.223  0.00  0.00    +0.000 A 
ATOM     20  N   UNL     1      17.665   3.824  51.702  0.00  0.00    +0.000 NA
ATOM     21  C   UNL     1      16.338   3.761  52.070  0.00  0.00    +0.000 A 
ATOM     22  C   UNL     1      15.733   2.537  51.899  0.00  0.00    +0.000 A 
ATOM     23  S   UNL     1      16.860   1.425  51.243  0.00  0.00    +0.000 S 
ENDBRANCH  17  19
ENDBRANCH  11  13
ENDBRANCH   7  11
BRANCH   1  24
ATOM     24  O   UNL     1      27.173  -0.850  53.812  0.00  0.00    +0.000 OA
BRANCH  24  26
ATOM     25  C   UNL     1      29.584  -0.887  53.862  0.00  0.00    +0.000 C 
ATOM     26  C   UNL     1      28.333  -1.253  53.080  0.00  0.00    +0.000 C 
ENDBRANCH  24  26
ENDBRANCH   1  24
BRANCH  10  27
ATOM     27  O   UNL     1      24.379  -0.489  54.341  0.00  0.00    +0.000 OA
BRANCH  27  28
ATOM     28  C   UNL     1      23.088  -0.850  53.844  0.00  0.00    +0.000 C 
ATOM     29  C   UNL     1      22.189  -1.130  55.035  0.00  0.00    +0.000 C 
ENDBRANCH  27  28
ENDBRANCH  10  27
TORSDOF 7
ENDMDL
MODEL 4
REMARK VINA RESULT:    -7.724      2.626      6.870
REMARK INTER + INTRA:         -12.143
REMARK INTER:                 -11.156
REMARK INTRA:                  -0.987
REMARK UNBOUND:                -1.259
REMARK  Name = 
REMARK  9 active torsions:
REMARK  status: ('A' for Active; 'I' for Inactive)
REMARK    1  A    between atoms: C_1  and  C_2
REMARK    2  A    between atoms: C_2  and  O_3
REMARK    3  A    between atoms: O_3  and  C_4
REMARK    4  A    between atoms: C_10  and  N_11
REMARK    5  A    between atoms: N_11  and  C_12
REMARK    6  A    between atoms: C_16  and  C_17
REMARK    7  A    between atoms: C_25  and  O_26
REMARK    8  A    between atoms: O_26  and  C_27
REMARK    9  A    between atoms: C_27  and  C_28
REMARK                            x       y       z     vdW  Elec       q    Type
REMARK                         _______ _______ _______ _____ _____    ______ ____
ROOT
ATOM      1  C   UNL     1      19.538  -0.212  52.964  0.00  0.00    +0.000 A 
ATOM      2  C   UNL     1      19.059   0.207  51.719  0.00  0.00    +0.000 A 
ATOM      3  C   UNL     1      19.668   1.227  50.995  0.00  0.00    +0.000 A 
ATOM      4  N   UNL     1      19.133   1.583  49.826  0.00  0.00    +0.000 NA
ATOM      5  C   UNL     1      19.737   2.576  49.161  0.00  0.00    +0.000 A 
ATOM      6  N   UNL     1      20.816   3.255  49.565  0.00  0.00    +0.000 NA
ATOM      7  C   UNL     1      21.349   2.906  50.749  0.00  0.00    +0.000 A 
ATOM      8  C   UNL     1      20.808   1.851  51.524  0.00  0.00    +0.000 A 
ATOM      9  C   UNL     1      21.308   1.410  52.775  0.00  0.00    +0.000 A 
ATOM     10  C   UNL     1      20.656   0.417  53.507  0.00  0.00    +0.000 A 
ENDROOT
BRANCH   7  11
ATOM     11  N   UNL     1      22.544   3.554  51.194  0.00  0.00    +0.000 N 
ATOM     12  H   UNL     1      22.434   4.259  51.872  0.00  0.00    +0.000 HD
BRANCH  11  13
ATOM     13  C   UNL     1      23.874   3.290  50.761  0.00  0.00    +0.000 A 
ATOM     14  C   UNL     1      24.418   3.858  49.605  0.00  0.00    +0.000 A 
ATOM     15  C   UNL     1      25.780   3.740  49.327  0.00  0.00    +0.000 A 
ATOM     16  C   UNL     1      26.619   3.075  50.220  0.00  0.00    +0.000 A 
ATOM     17  C   UNL     1      26.115   2.514  51.403  0.00  0.00    +0.000 A 
ATOM     18  C   UNL     1      24.738   2.636  51.659  0.00  0.00    +0.000 A 
BRANCH  17  19
ATOM     19  C   UNL     1      27.058   1.895  52.351  0.00  0.00    +0.000 A 
ATOM     20  N   UNL     1      28.117   2.514  52.840  0.00  0.00    +0.000 NA
ATOM     21  C   UNL     1      28.801   1.686  53.706  0.00  0.00    +0.000 A 
ATOM     22  C   UNL     1      28.277   0.422  53.854  0.00  0.00    +0.000 A 
ATOM     23  S   UNL     1      26.872   0.265  52.885  0.00  0.00    +0.000 S 
ENDBRANCH  17  19
ENDBRANCH  11  13
ENDBRANCH   7  11
BRANCH   1  24
ATOM     24  O   UNL     1      18.854  -1.139  53.700  0.00  0.00    +0.000 OA
BRANCH  24  26
ATOM     25  C   UNL     1      17.481  -3.116  53.564  0.00  0.00    +0.000 C 
ATOM     26  C   UNL     1      17.716  -1.706  53.047  0.00  0.00    +0.000 C 
ENDBRANCH  24  26
ENDBRANCH   1  24
BRANCH  10  27
ATOM     27  O   UNL     1      21.242   0.093  54.700  0.00  0.00    +0.000 OA
BRANCH  27  28
ATOM     28  C   UNL     1      22.010  -1.113  54.654  0.00  0.00    +0.000 C 
ATOM     29  C   UNL     1      23.426  -0.749  54.244  0.00  0.00    +0.000 C 
ENDBRANCH  27  28
ENDBRANCH  10  27
TORSDOF 7
ENDMDL
MODEL 5
REMARK VINA RESULT:    -7.723      4.081      7.993
REMARK INTER + INTRA:         -12.142
REMARK INTER:                 -11.115
REMARK INTRA:                  -1.028
REMARK UNBOUND:                -1.259
REMARK  Name = 
REMARK  9 active torsions:
REMARK  status: ('A' for Active; 'I' for Inactive)
REMARK    1  A    between atoms: C_1  and  C_2
REMARK    2  A    between atoms: C_2  and  O_3
REMARK    3  A    between atoms: O_3  and  C_4
REMARK    4  A    between atoms: C_10  and  N_11
REMARK    5  A    between atoms: N_11  and  C_12
REMARK    6  A    between atoms: C_16  and  C_17
REMARK    7  A    between atoms: C_25  and  O_26
REMARK    8  A    between atoms: O_26  and  C_27
REMARK    9  A    between atoms: C_27  and  C_28
REMARK                            x       y       z     vdW  Elec       q    Type
REMARK                         _______ _______ _______ _____ _____    ______ ____
ROOT
ATOM      1  C   UNL     1      22.870   0.864  52.882  0.00  0.00    +0.000 A 
ATOM      2  C   UNL     1      24.018   1.062  53.656  0.00  0.00    +0.000 A 
ATOM      3  C   UNL     1      25.193   1.579  53.120  0.00  0.00    +0.000 A 
ATOM      4  N   UNL     1      26.251   1.714  53.922  0.00  0.00    +0.000 NA
ATOM      5  C   UNL     1      27.369   2.202  53.371  0.00  0.00    +0.000 A 
ATOM      6  N   UNL     1      27.531   2.554  52.091  0.00  0.00    +0.000 NA
ATOM      7  C   UNL     1      26.470   2.407  51.279  0.00  0.00    +0.000 A 
ATOM      8  C   UNL     1      25.228   1.924  51.761  0.00  0.00    +0.000 A 
ATOM      9  C   UNL     1      24.057   1.747  50.981  0.00  0.00    +0.000 A 
ATOM     10  C   UNL     1      22.902   1.184  51.526  0.00  0.00    +0.000 A 
ENDROOT
BRANCH   7  11
ATOM     11  N   UNL     1      26.570   2.833  49.917  0.00  0.00    +0.000 N 
ATOM     12  H   UNL     1      26.649   2.123  49.240  0.00  0.00    +0.000 HD
BRANCH  11  13
ATOM     13  C   UNL     1      26.567   4.173  49.435  0.00  0.00    +0.000 A 
ATOM     14  C   UNL     1      25.617   5.117  49.839  0.00  0.00    +0.000 A 
ATOM     15  C   UNL     1      25.768   6.463  49.507  0.00  0.00    +0.000 A 
ATOM     16  C   UNL     1      26.888   6.885  48.791  0.00  0.00    +0.000 A 
ATOM     17  C   UNL     1      27.874   5.971  48.391  0.00  0.00    +0.000 A 
ATOM     18  C   UNL     1      27.699   4.617  48.727  0.00  0.00    +0.000 A 
BRANCH  17  19
ATOM     19  C   UNL     1      29.077   6.481  47.710  0.00  0.00    +0.000 A 
ATOM     20  N   UNL     1      29.070   7.511  46.883  0.00  0.00    +0.000 NA
ATOM     21  C   UNL     1      30.342   7.757  46.410  0.00  0.00    +0.000 A 
ATOM     22  C   UNL     1      31.316   6.893  46.855  0.00  0.00    +0.000 A 
ATOM     23  S   UNL     1      30.621   5.737  47.912  0.00  0.00    +0.000 S 
ENDBRANCH  17  19
ENDBRANCH  11  13
ENDBRANCH   7  11
BRANCH   1  24
ATOM     24  O   UNL     1      21.768   0.253  53.410  0.00  0.00    +0.000 OA
BRANCH  24  26
ATOM     25  C   UNL     1      21.589  -1.911  54.459  0.00  0.00    +0.000 C 
ATOM     26  C   UNL     1      22.000  -0.458  54.630  0.00  0.00    +0.000 C 
ENDBRANCH  24  26
ENDBRANCH   1  24
BRANCH  10  27
ATOM     27  O   UNL     1      21.849   1.063  50.662  0.00  0.00    +0.000 OA
BRANCH  27  28
ATOM     28  C   UNL     1      21.748   2.138  49.725  0.00  0.00    +0.000 C 
ATOM     29  C   UNL     1      21.613   1.537  48.337  0.00  0.00    +0.000 C 
ENDBRANCH  27  28
ENDBRANCH  10  27
TORSDOF 7
ENDMDL
MODEL 6
REMARK VINA RESULT:    -7.597      3.062      5.453
REMARK INTER + INTRA:         -11.965
REMARK INTER:                 -10.820
REMARK INTRA:                  -1.145
REMARK UNBOUND:                -1.259
REMARK  Name = 
REMARK  9 active torsions:
REMARK  status: ('A' for Active; 'I' for Inactive)
REMARK    1  A    between atoms: C_1  and  C_2
REMARK    2  A    between atoms: C_2  and  O_3
REMARK    3  A    between atoms: O_3  and  C_4
REMARK    4  A    between atoms: C_10  and  N_11
REMARK    5  A    between atoms: N_11  and  C_12
REMARK    6  A    between atoms: C_16  and  C_17
REMARK    7  A    between atoms: C_25  and  O_26
REMARK    8  A    between atoms: O_26  and  C_27
REMARK    9  A    between atoms: C_27  and  C_28
REMARK                            x       y       z     vdW  Elec       q    Type
REMARK                         _______ _______ _______ _____ _____    ______ ____
ROOT
ATOM      1  C   UNL     1      27.192   1.467  52.791  0.00  0.00    +0.000 A 
ATOM      2  C   UNL     1      26.447   0.608  53.605  0.00  0.00    +0.000 A 
ATOM      3  C   UNL     1      25.102   0.340  53.366  0.00  0.00    +0.000 A 
ATOM      4  N   UNL     1      24.457  -0.472  54.205  0.00  0.00    +0.000 NA
ATOM      5  C   UNL     1      23.162  -0.698  53.954  0.00  0.00    +0.000 A 
ATOM      6  N   UNL     1      22.450  -0.176  52.949  0.00  0.00    +0.000 NA
ATOM      7  C   UNL     1      23.095   0.653  52.110  0.00  0.00    +0.000 A 
ATOM      8  C   UNL     1      24.473   0.942  52.266  0.00  0.00    +0.000 A 
ATOM      9  C   UNL     1      25.234   1.793  51.425  0.00  0.00    +0.000 A 
ATOM     10  C   UNL     1      26.569   2.085  51.708  0.00  0.00    +0.000 A 
ENDROOT
BRANCH   7  11
ATOM     11  N   UNL     1      22.396   1.183  50.980  0.00  0.00    +0.000 N 
ATOM     12  H   UNL     1      22.440   0.655  50.150  0.00  0.00    +0.000 HD
BRANCH  11  13
ATOM     13  C   UNL     1      21.644   2.391  50.925  0.00  0.00    +0.000 A 
ATOM     14  C   UNL     1      20.312   2.468  51.343  0.00  0.00    +0.000 A 
ATOM     15  C   UNL     1      19.676   3.704  51.466  0.00  0.00    +0.000 A 
ATOM     16  C   UNL     1      20.378   4.879  51.201  0.00  0.00    +0.000 A 
ATOM     17  C   UNL     1      21.723   4.842  50.804  0.00  0.00    +0.000 A 
ATOM     18  C   UNL     1      22.342   3.587  50.676  0.00  0.00    +0.000 A 
BRANCH  17  19
ATOM     19  C   UNL     1      22.440   6.115  50.616  0.00  0.00    +0.000 A 
ATOM     20  N   UNL     1      21.921   7.167  50.007  0.00  0.00    +0.000 NA
ATOM     21  C   UNL     1      22.824   8.209  49.992  0.00  0.00    +0.000 A 
ATOM     22  C   UNL     1      24.046   7.941  50.565  0.00  0.00    +0.000 A 
ATOM     23  S   UNL     1      24.066   6.332  51.154  0.00  0.00    +0.000 S 
ENDBRANCH  17  19
ENDBRANCH  11  13
ENDBRANCH   7  11
BRANCH   1  24
ATOM     24  O   UNL     1      28.477   1.796  53.115  0.00  0.00    +0.000 OA
BRANCH  24  26
ATOM     25  C   UNL     1      29.858  -0.135  53.537  0.00  0.00    +0.000 C 
ATOM     26  C   UNL     1      29.060   1.002  54.152  0.00  0.00    +0.000 C 
ENDBRANCH  24  26
ENDBRANCH   1  24
BRANCH  10  27
ATOM     27  O   UNL     1      27.182   2.926  50.821  0.00  0.00    +0.000 OA
BRANCH  27  28
ATOM     28  C   UNL     1      26.318   3.396  49.783  0.00  0.00    +0.000 C 
ATOM     29  C   UNL     1      27.043   4.502  49.036  0.00  0.00    +0.000 C 
ENDBRANCH  27  28
ENDBRANCH  10  27
TORSDOF 7
ENDMDL
MODEL 7
REMARK VINA RESULT:    -7.544      3.364      6.618
REMARK INTER + INTRA:         -11.890
REMARK INTER:                 -10.756
REMARK INTRA:                  -1.134
REMARK UNBOUND:                -1.259
REMARK  Name = 
REMARK  9 active torsions:
REMARK  status: ('A' for Active; 'I' for Inactive)
REMARK    1  A    between atoms: C_1  and  C_2
REMARK    2  A    between atoms: C_2  and  O_3
REMARK    3  A    between atoms: O_3  and  C_4
REMARK    4  A    between atoms: C_10  and  N_11
REMARK    5  A    between atoms: N_11  and  C_12
REMARK    6  A    between atoms: C_16  and  C_17
REMARK    7  A    between atoms: C_25  and  O_26
REMARK    8  A    between atoms: O_26  and  C_27
REMARK    9  A    between atoms: C_27  and  C_28
REMARK                            x       y       z     vdW  Elec       q    Type
REMARK                         _______ _______ _______ _____ _____    ______ ____
ROOT
ATOM      1  C   UNL     1      22.775   0.998  52.823  0.00  0.00    +0.000 A 
ATOM      2  C   UNL     1      23.959   1.120  53.558  0.00  0.00    +0.000 A 
ATOM      3  C   UNL     1      25.131   1.618  52.998  0.00  0.00    +0.000 A 
ATOM      4  N   UNL     1      26.224   1.678  53.762  0.00  0.00    +0.000 NA
ATOM      5  C   UNL     1      27.337   2.150  53.189  0.00  0.00    +0.000 A 
ATOM      6  N   UNL     1      27.463   2.553  51.920  0.00  0.00    +0.000 NA
ATOM      7  C   UNL     1      26.366   2.481  51.145  0.00  0.00    +0.000 A 
ATOM      8  C   UNL     1      25.127   2.022  51.655  0.00  0.00    +0.000 A 
ATOM      9  C   UNL     1      23.921   1.922  50.916  0.00  0.00    +0.000 A 
ATOM     10  C   UNL     1      22.768   1.377  51.482  0.00  0.00    +0.000 A 
ENDROOT
BRANCH   7  11
ATOM     11  N   UNL     1      26.430   2.964  49.801  0.00  0.00    +0.000 N 
ATOM     12  H   UNL     1      26.351   2.289  49.088  0.00  0.00    +0.000 HD
BRANCH  11  13
ATOM     13  C   UNL     1      26.594   4.315  49.381  0.00  0.00    +0.000 A 
ATOM     14  C   UNL     1      27.776   4.785  48.799  0.00  0.00    +0.000 A 
ATOM     15  C   UNL     1      27.827   6.052  48.219  0.00  0.00    +0.000 A 
ATOM     16  C   UNL     1      26.685   6.852  48.187  0.00  0.00    +0.000 A 
ATOM     17  C   UNL     1      25.476   6.405  48.739  0.00  0.00    +0.000 A 
ATOM     18  C   UNL     1      25.448   5.129  49.328  0.00  0.00    +0.000 A 
BRANCH  17  19
ATOM     19  C   UNL     1      24.280   7.256  48.606  0.00  0.00    +0.000 A 
ATOM     20  N   UNL     1      23.936   8.179  49.486  0.00  0.00    +0.000 NA
ATOM     21  C   UNL     1      22.780   8.816  49.089  0.00  0.00    +0.000 A 
ATOM     22  C   UNL     1      22.224   8.356  47.916  0.00  0.00    +0.000 A 
ATOM     23  S   UNL     1      23.187   7.090  47.281  0.00  0.00    +0.000 S 
ENDBRANCH  17  19
ENDBRANCH  11  13
ENDBRANCH   7  11
BRANCH   1  24
ATOM     24  O   UNL     1      21.672   0.403  53.368  0.00  0.00    +0.000 OA
BRANCH  24  26
ATOM     25  C   UNL     1      21.553  -1.819  54.295  0.00  0.00    +0.000 C 
ATOM     26  C   UNL     1      21.923  -0.367  54.546  0.00  0.00    +0.000 C 
ENDBRANCH  24  26
ENDBRANCH   1  24
BRANCH  10  27
ATOM     27  O   UNL     1      21.678   1.333  50.657  0.00  0.00    +0.000 OA
BRANCH  27  28
ATOM     28  C   UNL     1      21.727   2.283  49.588  0.00  0.00    +0.000 C 
ATOM     29  C   UNL     1      21.518   1.532  48.285  0.00  0.00    +0.000 C 
ENDBRANCH  27  28
ENDBRANCH  10  27
TORSDOF 7
ENDMDL
MODEL 8
REMARK VINA RESULT:    -7.413      1.879      2.475
REMARK INTER + INTRA:         -11.706
REMARK INTER:                 -10.875
REMARK INTRA:                  -0.831
REMARK UNBOUND:                -1.259
REMARK  Name = 
REMARK  9 active torsions:
REMARK  status: ('A' for Active; 'I' for Inactive)
REMARK    1  A    between atoms: C_1  and  C_2
REMARK    2  A    between atoms: C_2  and  O_3
REMARK    3  A    between atoms: O_3  and  C_4
REMARK    4  A    between atoms: C_10  and  N_11
REMARK    5  A    between atoms: N_11  and  C_12
REMARK    6  A    between atoms: C_16  and  C_17
REMARK    7  A    between atoms: C_25  and  O_26
REMARK    8  A    between atoms: O_26  and  C_27
REMARK    9  A    between atoms: C_27  and  C_28
REMARK                            x       y       z     vdW  Elec       q    Type
REMARK                         _______ _______ _______ _____ _____    ______ ____
ROOT
ATOM      1  C   UNL     1      26.514   1.180  54.053  0.00  0.00    +0.000 A 
ATOM      2  C   UNL     1      26.019   2.477  53.884  0.00  0.00    +0.000 A 
ATOM      3  C   UNL     1      24.845   2.737  53.185  0.00  0.00    +0.000 A 
ATOM      4  N   UNL     1      24.455   4.006  53.048  0.00  0.00    +0.000 NA
ATOM      5  C   UNL     1      23.328   4.222  52.359  0.00  0.00    +0.000 A 
ATOM      6  N   UNL     1      22.563   3.288  51.781  0.00  0.00    +0.000 NA
ATOM      7  C   UNL     1      22.962   2.010  51.907  0.00  0.00    +0.000 A 
ATOM      8  C   UNL     1      24.125   1.664  52.639  0.00  0.00    +0.000 A 
ATOM      9  C   UNL     1      24.613   0.347  52.831  0.00  0.00    +0.000 A 
ATOM     10  C   UNL     1      25.816   0.110  53.496  0.00  0.00    +0.000 A 
ENDROOT
BRANCH   7  11
ATOM     11  N   UNL     1      22.143   0.968  51.368  0.00  0.00    +0.000 N 
ATOM     12  H   UNL     1      22.568   0.087  51.263  0.00  0.00    +0.000 HD
BRANCH  11  13
ATOM     13  C   UNL     1      20.781   1.069  50.967  0.00  0.00    +0.000 A 
ATOM     14  C   UNL     1      20.384   1.755  49.814  0.00  0.00    +0.000 A 
ATOM     15  C   UNL     1      19.073   1.659  49.346  0.00  0.00    +0.000 A 
ATOM     16  C   UNL     1      18.152   0.849  50.011  0.00  0.00    +0.000 A 
ATOM     17  C   UNL     1      18.520   0.127  51.156  0.00  0.00    +0.000 A 
ATOM     18  C   UNL     1      19.843   0.246  51.617  0.00  0.00    +0.000 A 
BRANCH  17  19
ATOM     19  C   UNL     1      17.532  -0.775  51.772  0.00  0.00    +0.000 A 
ATOM     20  N   UNL     1      17.803  -1.575  52.788  0.00  0.00    +0.000 NA
ATOM     21  C   UNL     1      16.681  -2.290  53.151  0.00  0.00    +0.000 A 
ATOM     22  C   UNL     1      15.559  -2.056  52.388  0.00  0.00    +0.000 A 
ATOM     23  S   UNL     1      15.915  -0.893  51.182  0.00  0.00    +0.000 S 
ENDBRANCH  17  19
ENDBRANCH  11  13
ENDBRANCH   7  11
BRANCH   1  24
ATOM     24  O   UNL     1      27.725   0.966  54.648  0.00  0.00    +0.000 OA
BRANCH  24  26
ATOM     25  C   UNL     1      29.771   0.118  53.697  0.00  0.00    +0.000 C 
ATOM     26  C   UNL     1      28.859   1.322  53.853  0.00  0.00    +0.000 C 
ENDBRANCH  24  26
ENDBRANCH   1  24
BRANCH  10  27
ATOM     27  O   UNL     1      26.174  -1.206  53.604  0.00  0.00    +0.000 OA
BRANCH  27  28
ATOM     28  C   UNL     1      26.751  -1.745  52.411  0.00  0.00    +0.000 C 
ATOM     29  C   UNL     1      27.846  -2.714  52.818  0.00  0.00    +0.000 C 
ENDBRANCH  27  28
ENDBRANCH  10  27
TORSDOF 7
ENDMDL
MODEL 9
REMARK VINA RESULT:    -7.205      3.895      7.557
REMARK INTER + INTRA:         -11.412
REMARK INTER:                 -10.324
REMARK INTRA:                  -1.088
REMARK UNBOUND:                -1.259
REMARK  Name = 
REMARK  9 active torsions:
REMARK  status: ('A' for Active; 'I' for Inactive)
REMARK    1  A    between atoms: C_1  and  C_2
REMARK    2  A    between atoms: C_2  and  O_3
REMARK    3  A    between atoms: O_3  and  C_4
REMARK    4  A    between atoms: C_10  and  N_11
REMARK    5  A    between atoms: N_11  and  C_12
REMARK    6  A    between atoms: C_16  and  C_17
REMARK    7  A    between atoms: C_25  and  O_26
REMARK    8  A    between atoms: O_26  and  C_27
REMARK    9  A    between atoms: C_27  and  C_28
REMARK                            x       y       z     vdW  Elec       q    Type
REMARK                         _______ _______ _______ _____ _____    ______ ____
ROOT
ATOM      1  C   UNL     1      20.782   4.865  49.528  0.00  0.00    +0.000 A 
ATOM      2  C   UNL     1      22.011   5.064  48.890  0.00  0.00    +0.000 A 
ATOM      3  C   UNL     1      23.223   4.787  49.514  0.00  0.00    +0.000 A 
ATOM      4  N   UNL     1      24.352   5.028  48.844  0.00  0.00    +0.000 NA
ATOM      5  C   UNL     1      25.501   4.763  49.478  0.00  0.00    +0.000 A 
ATOM      6  N   UNL     1      25.625   4.293  50.724  0.00  0.00    +0.000 NA
ATOM      7  C   UNL     1      24.490   4.062  51.405  0.00  0.00    +0.000 A 
ATOM      8  C   UNL     1      23.217   4.281  50.823  0.00  0.00    +0.000 A 
ATOM      9  C   UNL     1      21.971   4.056  51.461  0.00  0.00    +0.000 A 
ATOM     10  C   UNL     1      20.767   4.383  50.836  0.00  0.00    +0.000 A 
ENDROOT
BRANCH   7  11
ATOM     11  N   UNL     1      24.566   3.494  52.716  0.00  0.00    +0.000 N 
ATOM     12  H   UNL     1      24.492   4.121  53.471  0.00  0.00    +0.000 HD
BRANCH  11  13
ATOM     13  C   UNL     1      24.739   2.120  53.047  0.00  0.00    +0.000 A 
ATOM     14  C   UNL     1      23.694   1.193  52.986  0.00  0.00    +0.000 A 
ATOM     15  C   UNL     1      23.946  -0.173  53.118  0.00  0.00    +0.000 A 
ATOM     16  C   UNL     1      25.254  -0.628  53.282  0.00  0.00    +0.000 A 
ATOM     17  C   UNL     1      26.331   0.270  53.324  0.00  0.00    +0.000 A 
ATOM     18  C   UNL     1      26.054   1.642  53.199  0.00  0.00    +0.000 A 
BRANCH  17  19
ATOM     19  C   UNL     1      27.698  -0.269  53.417  0.00  0.00    +0.000 A 
ATOM     20  N   UNL     1      27.994  -1.549  53.274  0.00  0.00    +0.000 NA
ATOM     21  C   UNL     1      29.352  -1.748  53.405  0.00  0.00    +0.000 A 
ATOM     22  C   UNL     1      30.091  -0.619  53.678  0.00  0.00    +0.000 A 
ATOM     23  S   UNL     1      29.054   0.742  53.763  0.00  0.00    +0.000 S 
ENDBRANCH  17  19
ENDBRANCH  11  13
ENDBRANCH   7  11
BRANCH   1  24
ATOM     24  O   UNL     1      19.615   5.249  48.931  0.00  0.00    +0.000 OA
BRANCH  24  26
ATOM     25  C   UNL     1      19.470   7.654  49.033  0.00  0.00    +0.000 C 
ATOM     26  C   UNL     1      19.704   6.442  48.147  0.00  0.00    +0.000 C 
ENDBRANCH  24  26
ENDBRANCH   1  24
BRANCH  10  27
ATOM     27  O   UNL     1      19.641   4.122  51.566  0.00  0.00    +0.000 OA
BRANCH  27  28
ATOM     28  C   UNL     1      19.203   2.763  51.482  0.00  0.00    +0.000 C 
ATOM     29  C   UNL     1      17.685   2.761  51.456  0.00  0.00    +0.000 C 
ENDBRANCH  27  28
ENDBRANCH  10  27
TORSDOF 7
ENDMDL
