
     RDKit          3D

 59 64  0  0  0  0  0  0  0  0999 V2000
    6.6502    2.5088   -1.3925 F   0  0  0  0  0  0  0  0  0  0  0  0
    6.2476    1.2144   -1.4284 C   0  0  0  0  0  0  0  0  0  0  0  0
    6.0023    0.5929   -2.6561 C   0  0  0  0  0  0  0  0  0  0  0  0
    5.5968   -0.7444   -2.6940 C   0  0  0  0  0  0  0  0  0  0  0  0
    5.4318   -1.4615   -1.5042 C   0  0  0  0  0  0  0  0  0  0  0  0
    5.6644   -0.8406   -0.2651 C   0  0  0  0  0  0  0  0  0  0  0  0
    5.4760   -1.6120    1.0151 C   0  0  0  0  0  0  0  0  0  0  0  0
    4.1041   -2.1096    1.1183 N   0  0  0  0  0  0  0  0  0  0  0  0
    3.7714   -3.3908    0.9971 N   0  0  0  0  0  0  0  0  0  0  0  0
    2.4248   -3.4920    1.1041 C   0  0  0  0  0  0  0  0  0  0  0  0
    1.9094   -2.2273    1.2918 C   0  0  0  0  0  0  0  0  0  0  0  0
    0.6050   -1.7666    1.4293 C   0  0  0  0  0  0  0  0  0  0  0  0
    0.4028   -0.3766    1.5838 C   0  0  0  0  0  0  0  0  0  0  0  0
   -0.9418    0.1250    1.6887 N   0  0  0  0  0  0  0  0  0  0  0  0
   -1.2557    1.4978    1.9407 C   0  0  0  0  0  0  0  0  0  0  0  0
   -0.8036    2.0977    3.0797 N   0  0  0  0  0  0  0  0  0  0  0  0
   -1.1212    3.3914    3.3772 C   0  0  0  0  0  0  0  0  0  0  0  0
   -1.9136    4.1045    2.5308 N   0  0  0  0  0  0  0  0  0  0  0  0
   -2.3598    3.5180    1.4227 N   0  0  0  0  0  0  0  0  0  0  0  0
   -3.1240    4.0683    0.4679 C   0  0  0  0  0  0  0  0  0  0  0  0
   -3.3228    3.1299   -0.5320 C   0  0  0  0  0  0  0  0  0  0  0  0
   -2.6455    1.9709   -0.1562 C   0  0  0  0  0  0  0  0  0  0  0  0
   -2.5708    0.7250   -0.9985 C   0  0  0  0  0  0  0  0  0  0  0  0
   -3.9020    0.1007   -1.1200 N   0  0  0  0  0  0  0  0  0  0  0  0
   -3.9215   -0.8540   -2.2498 C   0  0  0  0  0  0  0  0  0  0  0  0
   -5.1512   -1.7853   -2.1982 C   0  0  0  0  0  0  0  0  0  0  0  0
   -6.2138   -1.2200   -1.3610 N   0  0  0  0  0  0  0  0  0  0  0  0
   -5.7628   -1.0439    0.0298 C   0  0  0  0  0  0  0  0  0  0  0  0
   -4.2968   -0.5794    0.1265 C   0  0  0  0  0  0  0  0  0  0  0  0
   -2.0653    2.2538    1.0813 C   0  0  0  0  0  0  0  0  0  0  0  0
    1.5267    0.4969    1.5852 C   0  0  0  0  0  0  0  0  0  0  0  0
    2.8326   -0.0095    1.4468 C   0  0  0  0  0  0  0  0  0  0  0  0
    2.9818   -1.3872    1.2988 C   0  0  0  0  0  0  0  0  0  0  0  0
    6.0813    0.5019   -0.2360 C   0  0  0  0  0  0  0  0  0  0  0  0
    6.1287    1.1457   -3.5782 H   0  0  0  0  0  0  0  0  0  0  0  0
    5.4107   -1.2251   -3.6455 H   0  0  0  0  0  0  0  0  0  0  0  0
    5.1159   -2.4966   -1.5473 H   0  0  0  0  0  0  0  0  0  0  0  0
    5.7020   -0.9825    1.9027 H   0  0  0  0  0  0  0  0  0  0  0  0
    6.1870   -2.4661    1.0285 H   0  0  0  0  0  0  0  0  0  0  0  0
    1.8694   -4.4180    1.0407 H   0  0  0  0  0  0  0  0  0  0  0  0
   -0.2279   -2.4559    1.4044 H   0  0  0  0  0  0  0  0  0  0  0  0
   -1.7388   -0.5441    1.6033 H   0  0  0  0  0  0  0  0  0  0  0  0
   -0.7473    3.8470    4.2841 H   0  0  0  0  0  0  0  0  0  0  0  0
   -3.4989    5.0836    0.4826 H   0  0  0  0  0  0  0  0  0  0  0  0
   -3.8820    3.2792   -1.4460 H   0  0  0  0  0  0  0  0  0  0  0  0
   -2.2120    1.0434   -2.0022 H   0  0  0  0  0  0  0  0  0  0  0  0
   -1.8227    0.0002   -0.6237 H   0  0  0  0  0  0  0  0  0  0  0  0
   -2.9997   -1.4796   -2.2621 H   0  0  0  0  0  0  0  0  0  0  0  0
   -3.9537   -0.2754   -3.1986 H   0  0  0  0  0  0  0  0  0  0  0  0
   -4.8547   -2.7786   -1.7924 H   0  0  0  0  0  0  0  0  0  0  0  0
   -5.5393   -1.9555   -3.2260 H   0  0  0  0  0  0  0  0  0  0  0  0
   -6.4846   -0.2853   -1.7512 H   0  0  0  0  0  0  0  0  0  0  0  0
   -6.4172   -0.2952    0.5289 H   0  0  0  0  0  0  0  0  0  0  0  0
   -5.8859   -2.0027    0.5794 H   0  0  0  0  0  0  0  0  0  0  0  0
   -4.2027    0.1055    0.9976 H   0  0  0  0  0  0  0  0  0  0  0  0
   -3.6387   -1.4601    0.3116 H   0  0  0  0  0  0  0  0  0  0  0  0
    1.3984    1.5668    1.6752 H   0  0  0  0  0  0  0  0  0  0  0  0
    3.6845    0.6545    1.4486 H   0  0  0  0  0  0  0  0  0  0  0  0
    6.2729    0.9976    0.7078 H   0  0  0  0  0  0  0  0  0  0  0  0
  1  2  1  0
  2  3  2  0
  3  4  1  0
  4  5  2  0
  5  6  1  0
  6  7  1  0
  7  8  1  0
  8  9  1  0
  9 10  2  0
 10 11  1  0
 11 12  2  0
 12 13  1  0
 13 14  1  0
 14 15  1  0
 15 16  2  0
 16 17  1  0
 17 18  2  0
 18 19  1  0
 19 20  1  0
 20 21  2  0
 21 22  1  0
 22 23  1  0
 23 24  1  0
 24 25  1  0
 25 26  1  0
 26 27  1  0
 27 28  1  0
 28 29  1  0
 22 30  2  0
 13 31  2  0
 31 32  1  0
 32 33  2  0
  6 34  2  0
 34  2  1  0
 33  8  1  0
 33 11  1  0
 30 15  1  0
 30 19  1  0
 29 24  1  0
  3 35  1  0
  4 36  1  0
  5 37  1  0
  7 38  1  0
  7 39  1  0
 10 40  1  0
 12 41  1  0
 14 42  1  0
 17 43  1  0
 20 44  1  0
 21 45  1  0
 23 46  1  0
 23 47  1  0
 25 48  1  0
 25 49  1  0
 26 50  1  0
 26 51  1  0
 27 52  1  0
 28 53  1  0
 28 54  1  0
 29 55  1  0
 29 56  1  0
 31 57  1  0
 32 58  1  0
 34 59  1  0
M  END
