
     RDKit          3D

 68 71  0  0  0  0  0  0  0  0999 V2000
   -4.5851    1.5884    4.5821 C   0  0  0  0  0  0  0  0  0  0  0  0
   -3.2278    2.1866    4.2491 C   0  0  0  0  0  0  0  0  0  0  0  0
   -2.9291    1.9470    2.8761 O   0  0  0  0  0  0  0  0  0  0  0  0
   -1.7498    2.3554    2.2300 C   0  0  0  0  0  0  0  0  0  0  0  0
   -0.7573    3.0964    2.8990 C   0  0  0  0  0  0  0  0  0  0  0  0
    0.4147    3.4734    2.2376 C   0  0  0  0  0  0  0  0  0  0  0  0
    1.3569    4.1946    2.9004 N   0  0  0  0  0  0  0  0  0  0  0  0
    2.5110    4.5897    2.3043 C   0  0  0  0  0  0  0  0  0  0  0  0
    2.7727    4.2424    0.9752 C   0  0  0  0  0  0  0  0  0  0  0  0
    4.0196    4.6450    0.3714 C   0  0  0  0  0  0  0  0  0  0  0  0
    5.0201    4.9668   -0.1133 N   0  0  0  0  0  0  0  0  0  0  0  0
    1.8326    3.4778    0.2615 C   0  0  0  0  0  0  0  0  0  0  0  0
    2.1267    3.0650   -1.0848 N   0  0  0  0  0  0  0  0  0  0  0  0
    2.3064    1.6862   -1.4705 C   0  0  0  0  0  0  0  0  0  0  0  0
    2.3269    0.6495   -0.5195 C   0  0  0  0  0  0  0  0  0  0  0  0
    2.4639   -0.6801   -0.9233 C   0  0  0  0  0  0  0  0  0  0  0  0
    2.6047   -1.0006   -2.2856 C   0  0  0  0  0  0  0  0  0  0  0  0
    2.7506   -2.3235   -2.7354 O   0  0  0  0  0  0  0  0  0  0  0  0
    2.7683   -3.4856   -1.9053 C   0  0  0  0  0  0  0  0  0  0  0  0
    4.0112   -3.5401   -1.0634 C   0  0  0  0  0  0  0  0  0  0  0  0
    5.2739   -3.2862   -1.6218 C   0  0  0  0  0  0  0  0  0  0  0  0
    6.4086   -3.3538   -0.8099 C   0  0  0  0  0  0  0  0  0  0  0  0
    6.2783   -3.6957    0.5387 C   0  0  0  0  0  0  0  0  0  0  0  0
    5.0081   -3.9536    1.0580 C   0  0  0  0  0  0  0  0  0  0  0  0
    3.9148   -3.8765    0.2536 N   0  0  0  0  0  0  0  0  0  0  0  0
    2.6023    0.0338   -3.2326 C   0  0  0  0  0  0  0  0  0  0  0  0
    2.7755   -0.3263   -4.9438 Cl  0  0  0  0  0  0  0  0  0  0  0  0
    2.4590    1.3655   -2.8266 C   0  0  0  0  0  0  0  0  0  0  0  0
    0.6180    3.1127    0.8885 C   0  0  0  0  0  0  0  0  0  0  0  0
   -0.3953    2.4137    0.2085 C   0  0  0  0  0  0  0  0  0  0  0  0
   -1.5630    2.0051    0.8782 C   0  0  0  0  0  0  0  0  0  0  0  0
   -2.5979    1.2816    0.1838 N   0  0  0  0  0  0  0  0  0  0  0  0
   -2.3538    0.3227   -0.8596 C   0  0  0  0  0  0  0  0  0  0  0  0
   -1.1873   -0.1038   -1.0825 O   0  0  0  0  0  0  0  0  0  0  0  0
   -3.4975   -0.2157   -1.6678 C   0  0  0  0  0  0  0  0  0  0  0  0
   -3.6769   -1.7193   -1.4334 C   0  0  0  0  0  0  0  0  0  0  0  0
   -4.9062   -2.1854   -2.1136 N   0  0  0  0  0  0  0  0  0  0  0  0
   -6.0547   -2.1744   -1.1878 C   0  0  0  0  0  0  0  0  0  0  0  0
   -4.7212   -3.5384   -2.6623 C   0  0  0  0  0  0  0  0  0  0  0  0
   -5.3719    2.0617    3.9551 H   0  0  0  0  0  0  0  0  0  0  0  0
   -4.8217    1.7674    5.6525 H   0  0  0  0  0  0  0  0  0  0  0  0
   -4.5717    0.4948    4.3879 H   0  0  0  0  0  0  0  0  0  0  0  0
   -2.4533    1.7112    4.8910 H   0  0  0  0  0  0  0  0  0  0  0  0
   -3.2551    3.2816    4.4442 H   0  0  0  0  0  0  0  0  0  0  0  0
   -0.8860    3.3809    3.9343 H   0  0  0  0  0  0  0  0  0  0  0  0
    3.2296    5.1637    2.8730 H   0  0  0  0  0  0  0  0  0  0  0  0
    2.3544    3.8116   -1.7778 H   0  0  0  0  0  0  0  0  0  0  0  0
    2.2316    0.8579    0.5369 H   0  0  0  0  0  0  0  0  0  0  0  0
    2.4539   -1.4493   -0.1643 H   0  0  0  0  0  0  0  0  0  0  0  0
    1.8552   -3.5115   -1.2711 H   0  0  0  0  0  0  0  0  0  0  0  0
    2.7491   -4.3834   -2.5582 H   0  0  0  0  0  0  0  0  0  0  0  0
    5.3781   -3.0133   -2.6669 H   0  0  0  0  0  0  0  0  0  0  0  0
    7.3878   -3.1516   -1.2255 H   0  0  0  0  0  0  0  0  0  0  0  0
    7.1517   -3.7578    1.1756 H   0  0  0  0  0  0  0  0  0  0  0  0
    4.8911   -4.2307    2.0992 H   0  0  0  0  0  0  0  0  0  0  0  0
    2.4532    2.1534   -3.5704 H   0  0  0  0  0  0  0  0  0  0  0  0
   -0.2915    2.2058   -0.8478 H   0  0  0  0  0  0  0  0  0  0  0  0
   -3.5860    1.4136    0.4979 H   0  0  0  0  0  0  0  0  0  0  0  0
   -4.4300    0.3245   -1.4000 H   0  0  0  0  0  0  0  0  0  0  0  0
   -3.2995   -0.0309   -2.7468 H   0  0  0  0  0  0  0  0  0  0  0  0
   -3.7093   -1.9347   -0.3391 H   0  0  0  0  0  0  0  0  0  0  0  0
   -2.7695   -2.2349   -1.8329 H   0  0  0  0  0  0  0  0  0  0  0  0
   -5.9255   -2.9270   -0.3752 H   0  0  0  0  0  0  0  0  0  0  0  0
   -6.9898   -2.4014   -1.7418 H   0  0  0  0  0  0  0  0  0  0  0  0
   -6.1780   -1.1678   -0.7288 H   0  0  0  0  0  0  0  0  0  0  0  0
   -4.3984   -4.2556   -1.8721 H   0  0  0  0  0  0  0  0  0  0  0  0
   -3.9539   -3.5140   -3.4689 H   0  0  0  0  0  0  0  0  0  0  0  0
   -5.6668   -3.9046   -3.1201 H   0  0  0  0  0  0  0  0  0  0  0  0
  1  2  1  0
  2  3  1  0
  3  4  1  0
  4  5  2  0
  5  6  1  0
  6  7  2  0
  7  8  1  0
  8  9  2  0
  9 10  1  0
 10 11  3  0
  9 12  1  0
 12 13  1  0
 13 14  1  0
 14 15  2  0
 15 16  1  0
 16 17  2  0
 17 18  1  0
 18 19  1  0
 19 20  1  0
 20 21  2  0
 21 22  1  0
 22 23  2  0
 23 24  1  0
 24 25  2  0
 17 26  1  0
 26 27  1  0
 26 28  2  0
 12 29  2  0
 29 30  1  0
 30 31  2  0
 31 32  1  0
 32 33  1  0
 33 34  2  0
 33 35  1  0
 35 36  1  0
 36 37  1  0
 37 38  1  0
 37 39  1  0
 31  4  1  0
 29  6  1  0
 28 14  1  0
 25 20  1  0
  1 40  1  0
  1 41  1  0
  1 42  1  0
  2 43  1  0
  2 44  1  0
  5 45  1  0
  8 46  1  0
 13 47  1  0
 15 48  1  0
 16 49  1  0
 19 50  1  0
 19 51  1  0
 21 52  1  0
 22 53  1  0
 23 54  1  0
 24 55  1  0
 28 56  1  0
 30 57  1  0
 32 58  1  0
 35 59  1  0
 35 60  1  0
 36 61  1  0
 36 62  1  0
 38 63  1  0
 38 64  1  0
 38 65  1  0
 39 66  1  0
 39 67  1  0
 39 68  1  0
M  END
