
     RDKit          3D

 68 72  0  0  0  0  0  0  0  0999 V2000
    7.4559   -1.9546    1.9554 C   0  0  0  0  0  0  0  0  0  0  0  0
    7.0610   -2.0041    0.4799 C   0  0  0  0  0  0  0  0  0  0  0  0
    7.1758   -0.6698   -0.1520 N   0  0  0  0  0  0  0  0  0  0  0  0
    8.5932   -0.2519   -0.3217 C   0  0  0  0  0  0  0  0  0  0  0  0
    8.8913    0.9454    0.5745 C   0  0  0  0  0  0  0  0  0  0  0  0
    6.4381   -0.6330   -1.4363 C   0  0  0  0  0  0  0  0  0  0  0  0
    6.0079    0.7990   -1.7738 C   0  0  0  0  0  0  0  0  0  0  0  0
    5.1037    1.3160   -0.7462 N   0  0  0  0  0  0  0  0  0  0  0  0
    5.5024    2.0499    0.2885 N   0  0  0  0  0  0  0  0  0  0  0  0
    4.4264    2.3058    1.0714 C   0  0  0  0  0  0  0  0  0  0  0  0
    3.3256    1.6996    0.5050 C   0  0  0  0  0  0  0  0  0  0  0  0
    1.9913    1.6394    0.8974 C   0  0  0  0  0  0  0  0  0  0  0  0
    1.0917    0.9267    0.0737 C   0  0  0  0  0  0  0  0  0  0  0  0
   -0.2942    0.8543    0.4479 N   0  0  0  0  0  0  0  0  0  0  0  0
   -1.3812    0.9101   -0.4865 C   0  0  0  0  0  0  0  0  0  0  0  0
   -1.1592    1.1950   -1.7988 N   0  0  0  0  0  0  0  0  0  0  0  0
   -2.1867    1.2780   -2.6802 C   0  0  0  0  0  0  0  0  0  0  0  0
   -3.4957    1.0778   -2.2450 C   0  0  0  0  0  0  0  0  0  0  0  0
   -3.7203    0.7976   -0.8890 C   0  0  0  0  0  0  0  0  0  0  0  0
   -5.0907    0.5789   -0.3705 C   0  0  0  0  0  0  0  0  0  0  0  0
   -6.2240    0.2760   -1.1263 C   0  0  0  0  0  0  0  0  0  0  0  0
   -7.3017    0.1390   -0.3231 N   0  0  0  0  0  0  0  0  0  0  0  0
   -8.9013   -0.2867   -0.8419 S   0  0  0  0  0  0  0  0  0  0  0  0
   -8.9698   -0.2471   -2.3440 O   0  0  0  0  0  0  0  0  0  0  0  0
   -9.8892    0.7014   -0.2871 O   0  0  0  0  0  0  0  0  0  0  0  0
   -9.3065   -1.9328   -0.2804 C   0  0  0  0  0  0  0  0  0  0  0  0
   -8.2373   -2.9304   -0.7075 C   0  0  0  0  0  0  0  0  0  0  0  0
   -6.8751    0.3436    0.9367 C   0  0  0  0  0  0  0  0  0  0  0  0
   -7.6283    0.3091    2.1140 C   0  0  0  0  0  0  0  0  0  0  0  0
   -6.9687    0.5649    3.3272 C   0  0  0  0  0  0  0  0  0  0  0  0
   -5.5877    0.8481    3.3433 C   0  0  0  0  0  0  0  0  0  0  0  0
   -4.8506    0.8787    2.1461 C   0  0  0  0  0  0  0  0  0  0  0  0
   -5.5262    0.6144    0.9499 C   0  0  0  0  0  0  0  0  0  0  0  0
   -2.6546    0.7245   -0.0465 N   0  0  0  0  0  0  0  0  0  0  0  0
    1.5784    0.2592   -1.0850 C   0  0  0  0  0  0  0  0  0  0  0  0
    2.9362    0.3406   -1.4472 C   0  0  0  0  0  0  0  0  0  0  0  0
    3.7822    1.0852   -0.6250 C   0  0  0  0  0  0  0  0  0  0  0  0
    7.2273   -2.9286    2.4345 H   0  0  0  0  0  0  0  0  0  0  0  0
    6.8845   -1.1559    2.4762 H   0  0  0  0  0  0  0  0  0  0  0  0
    8.5415   -1.7616    2.0712 H   0  0  0  0  0  0  0  0  0  0  0  0
    7.6780   -2.7579   -0.0598 H   0  0  0  0  0  0  0  0  0  0  0  0
    6.0059   -2.3545    0.4534 H   0  0  0  0  0  0  0  0  0  0  0  0
    9.3067   -1.0687   -0.0742 H   0  0  0  0  0  0  0  0  0  0  0  0
    8.8284    0.0445   -1.3684 H   0  0  0  0  0  0  0  0  0  0  0  0
    8.2823    1.8185    0.2622 H   0  0  0  0  0  0  0  0  0  0  0  0
    9.9645    1.2157    0.4915 H   0  0  0  0  0  0  0  0  0  0  0  0
    8.6640    0.7073    1.6338 H   0  0  0  0  0  0  0  0  0  0  0  0
    5.5110   -1.2467   -1.3880 H   0  0  0  0  0  0  0  0  0  0  0  0
    7.0516   -1.0546   -2.2650 H   0  0  0  0  0  0  0  0  0  0  0  0
    5.4996    0.8110   -2.7619 H   0  0  0  0  0  0  0  0  0  0  0  0
    6.8966    1.4599   -1.8588 H   0  0  0  0  0  0  0  0  0  0  0  0
    4.4521    2.8827    1.9866 H   0  0  0  0  0  0  0  0  0  0  0  0
    1.6558    2.1378    1.7988 H   0  0  0  0  0  0  0  0  0  0  0  0
   -0.5316    0.9013    1.4655 H   0  0  0  0  0  0  0  0  0  0  0  0
   -1.9865    1.5082   -3.7180 H   0  0  0  0  0  0  0  0  0  0  0  0
   -4.3101    1.1621   -2.9514 H   0  0  0  0  0  0  0  0  0  0  0  0
   -6.2556    0.1408   -2.1991 H   0  0  0  0  0  0  0  0  0  0  0  0
   -9.3898   -1.9329    0.8265 H   0  0  0  0  0  0  0  0  0  0  0  0
  -10.2855   -2.2310   -0.7111 H   0  0  0  0  0  0  0  0  0  0  0  0
   -8.5300   -3.9501   -0.3816 H   0  0  0  0  0  0  0  0  0  0  0  0
   -8.1258   -2.9273   -1.8122 H   0  0  0  0  0  0  0  0  0  0  0  0
   -7.2633   -2.6759   -0.2384 H   0  0  0  0  0  0  0  0  0  0  0  0
   -8.6890    0.0967    2.1032 H   0  0  0  0  0  0  0  0  0  0  0  0
   -7.5240    0.5479    4.2567 H   0  0  0  0  0  0  0  0  0  0  0  0
   -5.0936    1.0479    4.2856 H   0  0  0  0  0  0  0  0  0  0  0  0
   -3.7953    1.1087    2.1695 H   0  0  0  0  0  0  0  0  0  0  0  0
    0.9145   -0.3387   -1.6945 H   0  0  0  0  0  0  0  0  0  0  0  0
    3.3038   -0.1665   -2.3295 H   0  0  0  0  0  0  0  0  0  0  0  0
  1  2  1  0
  2  3  1  0
  3  4  1  0
  4  5  1  0
  3  6  1  0
  6  7  1  0
  7  8  1  0
  8  9  1  0
  9 10  2  0
 10 11  1  0
 11 12  2  0
 12 13  1  0
 13 14  1  0
 14 15  1  0
 15 16  2  0
 16 17  1  0
 17 18  2  0
 18 19  1  0
 19 20  1  0
 20 21  2  0
 21 22  1  0
 22 23  1  0
 23 24  2  0
 23 25  2  0
 23 26  1  0
 26 27  1  0
 22 28  1  0
 28 29  2  0
 29 30  1  0
 30 31  2  0
 31 32  1  0
 32 33  2  0
 19 34  2  0
 13 35  2  0
 35 36  1  0
 36 37  2  0
 37  8  1  0
 37 11  1  0
 34 15  1  0
 33 20  1  0
 33 28  1  0
  1 38  1  0
  1 39  1  0
  1 40  1  0
  2 41  1  0
  2 42  1  0
  4 43  1  0
  4 44  1  0
  5 45  1  0
  5 46  1  0
  5 47  1  0
  6 48  1  0
  6 49  1  0
  7 50  1  0
  7 51  1  0
 10 52  1  0
 12 53  1  0
 14 54  1  0
 17 55  1  0
 18 56  1  0
 21 57  1  0
 26 58  1  0
 26 59  1  0
 27 60  1  0
 27 61  1  0
 27 62  1  0
 29 63  1  0
 30 64  1  0
 31 65  1  0
 32 66  1  0
 35 67  1  0
 36 68  1  0
M  END
