REMARK  Name = 
REMARK  10 active torsions:
REMARK  status: ('A' for Active; 'I' for Inactive)
REMARK    1  A    between atoms: C_2  and  C_3
REMARK    2  A    between atoms: N_5  and  C_6
REMARK    3  A    between atoms: C_11  and  C_12
REMARK    4  A    between atoms: C_17  and  C_18
REMARK    5  A    between atoms: C_21  and  C_22
REMARK    6  A    between atoms: C_24  and  O_25
REMARK    7  A    between atoms: O_25  and  C_26
REMARK    8  A    between atoms: C_27  and  C_28
REMARK    9  A    between atoms: C_29  and  O_30
REMARK   10  A    between atoms: O_30  and  C_31
REMARK                            x       y       z     vdW  Elec       q    Type
REMARK                         _______ _______ _______ _____ _____    ______ ____
ROOT
ATOM      1  C   UNL     1      -2.613  -1.537   2.432  0.00  0.00    +0.000 C 
ATOM      2  C   UNL     1      -2.227  -2.824   1.655  0.00  0.00    +0.000 C 
ATOM      3  C   UNL     1      -3.445  -3.729   1.489  0.00  0.00    +0.000 C 
ATOM      4  N   UNL     1      -4.503  -3.004   0.807  0.00  0.00    +0.000 N 
ATOM      5  C   UNL     1      -4.672  -1.674   1.006  0.00  0.00    +0.000 A 
ATOM      6  C   UNL     1      -5.590  -0.762   0.520  0.00  0.00    +0.000 A 
ATOM      7  C   UNL     1      -5.198   0.501   1.097  0.00  0.00    +0.000 A 
ATOM      8  N   UNL     1      -4.129   0.344   1.908  0.00  0.00    +0.000 NA
ATOM      9  N   UNL     1      -3.801  -0.960   1.785  0.00  0.00    +0.000 N 
ATOM     10  H   UNL     1      -5.104  -3.484   0.193  0.00  0.00    +0.000 HD
ENDROOT
BRANCH   7  11
ATOM     11  C   UNL     1      -5.875   1.808   0.988  0.00  0.00    +0.000 A 
ATOM     12  C   UNL     1      -7.270   1.867   0.948  0.00  0.00    +0.000 A 
ATOM     13  C   UNL     1      -7.949   3.075   0.760  0.00  0.00    +0.000 A 
ATOM     14  C   UNL     1      -7.232   4.285   0.627  0.00  0.00    +0.000 A 
ATOM     15  C   UNL     1      -7.995   5.539   0.285  0.00  0.00    +0.000 C 
ATOM     16  C   UNL     1      -5.831   4.252   0.781  0.00  0.00    +0.000 A 
ATOM     17  C   UNL     1      -5.169   3.014   0.941  0.00  0.00    +0.000 A 
BRANCH  13  18
ATOM     18  O   UNL     1      -9.318   3.165   0.687  0.00  0.00    +0.000 OA
ATOM     19  C   UNL     1     -10.060   1.952   0.671  0.00  0.00    +0.000 C 
ENDBRANCH  13  18
BRANCH  16  20
ATOM     20  O   UNL     1      -4.964   5.313   0.709  0.00  0.00    +0.000 OA
ATOM     21  C   UNL     1      -5.396   6.575   1.204  0.00  0.00    +0.000 C 
ENDBRANCH  16  20
ENDBRANCH   7  11
BRANCH   1  27
ATOM     22  C   UNL     1      -3.810  -1.656   4.809  0.00  0.00    +0.000 A 
ATOM     23  C   UNL     1      -3.686  -2.055   6.155  0.00  0.00    +0.000 A 
ATOM     24  C   UNL     1      -2.492  -2.554   6.676  0.00  0.00    +0.000 A 
ATOM     25  C   UNL     1      -1.382  -2.656   5.861  0.00  0.00    +0.000 A 
ATOM     26  C   UNL     1      -1.478  -2.267   4.527  0.00  0.00    +0.000 A 
ATOM     27  C   UNL     1      -2.691  -1.786   3.952  0.00  0.00    +0.000 A 
BRANCH  22  30
ATOM     28  C   UNL     1      -6.269  -1.229   4.965  0.00  0.00    +0.000 C 
ATOM     29  O   UNL     1      -6.556  -1.947   5.916  0.00  0.00    +0.000 OA
ATOM     30  N   UNL     1      -5.028  -1.083   4.375  0.00  0.00    +0.000 N 
ATOM     31  H   UNL     1      -4.987  -0.521   3.567  0.00  0.00    +0.000 HD
BRANCH  28  33
ATOM     32  C   UNL     1      -8.582  -0.419   4.739  0.00  0.00    +0.000 C 
ATOM     33  C   UNL     1      -7.327  -0.442   4.269  0.00  0.00    +0.000 C 
ENDBRANCH  28  33
ENDBRANCH  22  30
ENDBRANCH   1  27
BRANCH   6  34
ATOM     34  C   UNL     1      -6.694  -1.066  -0.371  0.00  0.00    +0.000 C 
ATOM     35  N   UNL     1      -7.231  -2.316  -0.223  0.00  0.00    +0.000 N 
ATOM     36  O   UNL     1      -7.181  -0.276  -1.174  0.00  0.00    +0.000 OA
ATOM     37  H   UNL     1      -6.838  -2.948   0.422  0.00  0.00    +0.000 HD
ATOM     38  H   UNL     1      -8.011  -2.584  -0.761  0.00  0.00    +0.000 HD
ENDBRANCH   6  34
TORSDOF 7
