
     RDKit          3D

 62 66  0  0  0  0  0  0  0  0999 V2000
    4.8775   -1.4996    3.3917 C   0  0  0  0  0  0  0  0  0  0  0  0
    4.1327   -2.7411    3.6491 N   0  0  0  0  0  0  0  0  0  0  0  0
    4.1538   -3.6182    2.4676 C   0  0  0  0  0  0  0  0  0  0  0  0
    2.7616   -2.4847    4.1472 C   0  0  0  0  0  0  0  0  0  0  0  0
    1.9181   -1.6711    3.2051 C   0  0  0  0  0  0  0  0  0  0  0  0
    1.4169   -2.2115    2.1381 N   0  0  0  0  0  0  0  0  0  0  0  0
    0.5885   -1.5345    1.1856 C   0  0  0  0  0  0  0  0  0  0  0  0
    0.4993   -2.0187    0.0248 O   0  0  0  0  0  0  0  0  0  0  0  0
   -0.1162   -0.3287    1.5209 N   0  0  0  0  0  0  0  0  0  0  0  0
   -0.7072    0.5336    0.5369 C   0  0  0  0  0  0  0  0  0  0  0  0
   -1.5649    0.0132   -0.4449 C   0  0  0  0  0  0  0  0  0  0  0  0
   -2.1360    0.8556   -1.4171 C   0  0  0  0  0  0  0  0  0  0  0  0
   -3.0019    0.3842   -2.4311 C   0  0  0  0  0  0  0  0  0  0  0  0
   -3.2689   -1.0201   -2.5974 N   0  0  0  0  0  0  0  0  0  0  0  0
   -4.5879   -1.5523   -2.7879 C   0  0  0  0  0  0  0  0  0  0  0  0
   -5.4443   -1.0612   -3.7892 C   0  0  0  0  0  0  0  0  0  0  0  0
   -6.7131   -1.6147   -3.9635 C   0  0  0  0  0  0  0  0  0  0  0  0
   -7.1363   -2.6701   -3.1526 C   0  0  0  0  0  0  0  0  0  0  0  0
   -8.3656   -3.2106   -3.3445 F   0  0  0  0  0  0  0  0  0  0  0  0
   -6.2854   -3.1770   -2.1637 C   0  0  0  0  0  0  0  0  0  0  0  0
   -6.8025   -4.5149   -1.1488 Cl  0  0  0  0  0  0  0  0  0  0  0  0
   -5.0131   -2.6229   -1.9882 C   0  0  0  0  0  0  0  0  0  0  0  0
   -3.5626    1.2793   -3.2881 N   0  0  0  0  0  0  0  0  0  0  0  0
   -3.3071    2.6086   -3.2026 C   0  0  0  0  0  0  0  0  0  0  0  0
   -2.4683    3.0815   -2.2478 N   0  0  0  0  0  0  0  0  0  0  0  0
   -1.8782    2.2435   -1.3578 C   0  0  0  0  0  0  0  0  0  0  0  0
   -1.0344    2.7638   -0.3706 C   0  0  0  0  0  0  0  0  0  0  0  0
   -0.4360    1.9118    0.5735 C   0  0  0  0  0  0  0  0  0  0  0  0
    0.4198    2.4023    1.5712 O   0  0  0  0  0  0  0  0  0  0  0  0
    1.3898    3.4313    1.3775 C   0  0  0  0  0  0  0  0  0  0  0  0
    2.5883    2.9018    0.5799 C   0  0  1  0  0  0  0  0  0  0  0  0
    3.2414    1.5771    0.9224 C   0  0  0  0  0  0  0  0  0  0  0  0
    3.7107    0.9767   -0.2617 O   0  0  0  0  0  0  0  0  0  0  0  0
    3.0760    1.6151   -1.3465 C   0  0  0  0  0  0  0  0  0  0  0  0
    2.4801    2.9328   -0.9062 C   0  0  2  0  0  0  0  0  0  0  0  0
    3.4234    3.8992   -0.2014 C   0  0  0  0  0  0  0  0  0  0  0  0
    4.8689   -0.8503    4.2920 H   0  0  0  0  0  0  0  0  0  0  0  0
    5.9388   -1.7396    3.1654 H   0  0  0  0  0  0  0  0  0  0  0  0
    4.4461   -0.9368    2.5351 H   0  0  0  0  0  0  0  0  0  0  0  0
    5.1898   -3.9830    2.2950 H   0  0  0  0  0  0  0  0  0  0  0  0
    3.8147   -3.0820    1.5547 H   0  0  0  0  0  0  0  0  0  0  0  0
    3.5117   -4.5117    2.6308 H   0  0  0  0  0  0  0  0  0  0  0  0
    2.8295   -1.9401    5.1132 H   0  0  0  0  0  0  0  0  0  0  0  0
    2.2484   -3.4478    4.3699 H   0  0  0  0  0  0  0  0  0  0  0  0
    1.7533   -0.6257    3.4433 H   0  0  0  0  0  0  0  0  0  0  0  0
   -0.1214    0.0074    2.5109 H   0  0  0  0  0  0  0  0  0  0  0  0
   -1.8075   -1.0382   -0.4075 H   0  0  0  0  0  0  0  0  0  0  0  0
   -2.5192   -1.7027   -2.3577 H   0  0  0  0  0  0  0  0  0  0  0  0
   -5.1277   -0.2773   -4.4599 H   0  0  0  0  0  0  0  0  0  0  0  0
   -7.3638   -1.2353   -4.7417 H   0  0  0  0  0  0  0  0  0  0  0  0
   -4.3588   -3.0181   -1.2213 H   0  0  0  0  0  0  0  0  0  0  0  0
   -3.7652    3.2916   -3.9028 H   0  0  0  0  0  0  0  0  0  0  0  0
   -0.8726    3.8354   -0.3289 H   0  0  0  0  0  0  0  0  0  0  0  0
    0.9357    4.3257    0.9055 H   0  0  0  0  0  0  0  0  0  0  0  0
    1.7638    3.7451    2.3735 H   0  0  0  0  0  0  0  0  0  0  0  0
    4.0910    1.7480    1.6214 H   0  0  0  0  0  0  0  0  0  0  0  0
    2.5179    0.8912    1.4101 H   0  0  0  0  0  0  0  0  0  0  0  0
    2.2695    0.9658   -1.7357 H   0  0  0  0  0  0  0  0  0  0  0  0
    3.8140    1.7900   -2.1494 H   0  0  0  0  0  0  0  0  0  0  0  0
    1.5351    3.3333   -1.3272 H   0  0  0  0  0  0  0  0  0  0  0  0
    4.5038    3.6502   -0.2859 H   0  0  0  0  0  0  0  0  0  0  0  0
    3.0564    4.9453   -0.1825 H   0  0  0  0  0  0  0  0  0  0  0  0
  1  2  1  0
  2  3  1  0
  2  4  1  0
  4  5  1  0
  5  6  2  0
  6  7  1  0
  7  8  2  0
  7  9  1  0
  9 10  1  0
 10 11  2  0
 11 12  1  0
 12 13  2  0
 13 14  1  0
 14 15  1  0
 15 16  2  0
 16 17  1  0
 17 18  2  0
 18 19  1  0
 18 20  1  0
 20 21  1  0
 20 22  2  0
 13 23  1  0
 23 24  2  0
 24 25  1  0
 25 26  2  0
 26 27  1  0
 27 28  2  0
 28 29  1  0
 29 30  1  0
 31 30  1  1
 31 32  1  0
 32 33  1  0
 33 34  1  0
 34 35  1  0
 35 36  1  0
 28 10  1  0
 35 31  1  0
 26 12  1  0
 36 31  1  0
 22 15  1  0
  1 37  1  0
  1 38  1  0
  1 39  1  0
  3 40  1  0
  3 41  1  0
  3 42  1  0
  4 43  1  0
  4 44  1  0
  5 45  1  0
  9 46  1  0
 11 47  1  0
 14 48  1  0
 16 49  1  0
 17 50  1  0
 22 51  1  0
 24 52  1  0
 27 53  1  0
 30 54  1  0
 30 55  1  0
 32 56  1  0
 32 57  1  0
 34 58  1  0
 34 59  1  0
 35 60  1  1
 36 61  1  0
 36 62  1  0
M  END
