MODEL 1
REMARK VINA RESULT:    -9.620      0.000      0.000
REMARK INTER + INTRA:         -13.724
REMARK INTER:                 -12.713
REMARK INTRA:                  -1.011
REMARK UNBOUND:                -1.011
REMARK  Name = 
REMARK  6 active torsions:
REMARK  status: ('A' for Active; 'I' for Inactive)
REMARK    1  A    between atoms: N_1  and  C_2
REMARK    2  A    between atoms: N_5  and  C_6
REMARK    3  A    between atoms: C_6  and  C_7
REMARK    4  A    between atoms: N_15  and  C_16
REMARK    5  A    between atoms: N_23  and  C_24
REMARK    6  A    between atoms: C_24  and  C_25
REMARK                            x       y       z     vdW  Elec       q    Type
REMARK                         _______ _______ _______ _____ _____    ______ ____
ROOT
ATOM      1  C   UNL     1      24.088   0.751  52.924  0.00  0.00    +0.000 A 
ATOM      2  C   UNL     1      23.240  -0.387  53.145  0.00  0.00    +0.000 A 
ATOM      3  C   UNL     1      22.051  -0.150  52.501  0.00  0.00    +0.000 A 
ATOM      4  N   UNL     1      22.140   1.076  51.908  0.00  0.00    +0.000 N 
ATOM      5  N   UNL     1      21.098   1.734  51.385  0.00  0.00    +0.000 NA
ATOM      6  C   UNL     1      21.424   2.870  50.868  0.00  0.00    +0.000 A 
ATOM      7  N   UNL     1      22.689   3.359  50.702  0.00  0.00    +0.000 NA
ATOM      8  C   UNL     1      23.718   2.743  51.211  0.00  0.00    +0.000 A 
ATOM      9  N   UNL     1      25.006   3.162  50.925  0.00  0.00    +0.000 N 
ATOM     10  C   UNL     1      23.427   1.553  51.995  0.00  0.00    +0.000 A 
ATOM     11  H   UNL     1      25.718   2.556  51.235  0.00  0.00    +0.000 HD
ENDROOT
BRANCH   9  12
ATOM     12  C   UNL     1      25.460   4.327  50.255  0.00  0.00    +0.000 A 
ATOM     13  C   UNL     1      26.461   4.198  49.273  0.00  0.00    +0.000 A 
ATOM     14  C   UNL     1      27.051   5.303  48.629  0.00  0.00    +0.000 A 
ATOM     15  C   UNL     1      26.622   6.576  49.018  0.00  0.00    +0.000 A 
ATOM     16  C   UNL     1      25.578   6.748  49.920  0.00  0.00    +0.000 A 
ATOM     17  C   UNL     1      25.432   8.148  50.034  0.00  0.00    +0.000 A 
ATOM     18  N   UNL     1      26.314   8.827  49.294  0.00  0.00    +0.000 NA
ATOM     19  N   UNL     1      27.042   7.851  48.697  0.00  0.00    +0.000 N 
ATOM     20  C   UNL     1      24.960   5.617  50.501  0.00  0.00    +0.000 A 
BRANCH  19  21
ATOM     21  C   UNL     1      28.090   8.231  47.763  0.00  0.00    +0.000 C 
BRANCH  21  22
ATOM     22  C   UNL     1      29.463   8.183  48.385  0.00  0.00    +0.000 A 
ATOM     23  C   UNL     1      30.265   7.047  48.258  0.00  0.00    +0.000 A 
ATOM     24  C   UNL     1      31.489   7.004  48.926  0.00  0.00    +0.000 A 
ATOM     25  C   UNL     1      31.889   8.095  49.685  0.00  0.00    +0.000 A 
ATOM     26  C   UNL     1      31.050   9.194  49.740  0.00  0.00    +0.000 A 
ATOM     27  N   UNL     1      29.850   9.261  49.119  0.00  0.00    +0.000 NA
ENDBRANCH  21  22
ENDBRANCH  19  21
ENDBRANCH   9  12
BRANCH   1  28
ATOM     28  C   UNL     1      25.387   0.924  53.661  0.00  0.00    +0.000 C 
BRANCH  28  32
ATOM     29  C   UNL     1      29.178   1.060  54.213  0.00  0.00    +0.000 C 
ATOM     30  C   UNL     1      28.252  -0.095  54.611  0.00  0.00    +0.000 C 
ATOM     31  C   UNL     1      27.322  -0.550  53.475  0.00  0.00    +0.000 C 
ATOM     32  N   UNL     1      26.546   0.533  52.835  0.00  0.00    +0.000 N 
ATOM     33  C   UNL     1      27.459   1.615  52.423  0.00  0.00    +0.000 C 
ATOM     34  C   UNL     1      28.364   2.162  53.530  0.00  0.00    +0.000 C 
ATOM     35  H   UNL     1      26.111   0.210  51.972  0.00  0.00    +0.000 HD
BRANCH  29  36
ATOM     36  N   UNL     1      30.282   0.588  53.371  0.00  0.00    +0.000 N 
ATOM     37  H   UNL     1      31.163   0.963  53.724  0.00  0.00    +0.000 HD
ATOM     38  H   UNL     1      30.138   0.906  52.412  0.00  0.00    +0.000 HD
ATOM     39  H   UNL     1      30.314  -0.431  53.391  0.00  0.00    +0.000 HD
ENDBRANCH  29  36
ENDBRANCH  28  32
ENDBRANCH   1  28
TORSDOF 6
ENDMDL
MODEL 2
REMARK VINA RESULT:    -9.153      4.686     10.663
REMARK INTER + INTRA:         -13.107
REMARK INTER:                 -12.274
REMARK INTRA:                  -0.833
REMARK UNBOUND:                -1.011
REMARK  Name = 
REMARK  6 active torsions:
REMARK  status: ('A' for Active; 'I' for Inactive)
REMARK    1  A    between atoms: N_1  and  C_2
REMARK    2  A    between atoms: N_5  and  C_6
REMARK    3  A    between atoms: C_6  and  C_7
REMARK    4  A    between atoms: N_15  and  C_16
REMARK    5  A    between atoms: N_23  and  C_24
REMARK    6  A    between atoms: C_24  and  C_25
REMARK                            x       y       z     vdW  Elec       q    Type
REMARK                         _______ _______ _______ _____ _____    ______ ____
ROOT
ATOM      1  C   UNL     1      24.235   0.914  52.153  0.00  0.00    +0.000 A 
ATOM      2  C   UNL     1      25.491   0.342  52.549  0.00  0.00    +0.000 A 
ATOM      3  C   UNL     1      25.239  -0.552  53.560  0.00  0.00    +0.000 A 
ATOM      4  N   UNL     1      23.895  -0.541  53.794  0.00  0.00    +0.000 N 
ATOM      5  N   UNL     1      23.313  -1.116  54.855  0.00  0.00    +0.000 NA
ATOM      6  C   UNL     1      22.030  -0.988  54.860  0.00  0.00    +0.000 A 
ATOM      7  N   UNL     1      21.257  -0.466  53.862  0.00  0.00    +0.000 NA
ATOM      8  C   UNL     1      21.799   0.108  52.825  0.00  0.00    +0.000 A 
ATOM      9  N   UNL     1      21.021   0.510  51.753  0.00  0.00    +0.000 N 
ATOM     10  C   UNL     1      23.250   0.196  52.830  0.00  0.00    +0.000 A 
ATOM     11  H   UNL     1      21.527   0.802  50.959  0.00  0.00    +0.000 HD
ENDROOT
BRANCH   9  12
ATOM     12  C   UNL     1      19.610   0.568  51.618  0.00  0.00    +0.000 A 
ATOM     13  C   UNL     1      19.045   1.600  50.844  0.00  0.00    +0.000 A 
ATOM     14  C   UNL     1      17.655   1.805  50.737  0.00  0.00    +0.000 A 
ATOM     15  C   UNL     1      16.822   0.944  51.460  0.00  0.00    +0.000 A 
ATOM     16  C   UNL     1      17.332  -0.139  52.166  0.00  0.00    +0.000 A 
ATOM     17  C   UNL     1      16.198  -0.764  52.729  0.00  0.00    +0.000 A 
ATOM     18  N   UNL     1      15.056  -0.134  52.438  0.00  0.00    +0.000 NA
ATOM     19  N   UNL     1      15.460   0.915  51.678  0.00  0.00    +0.000 N 
ATOM     20  C   UNL     1      18.728  -0.358  52.202  0.00  0.00    +0.000 A 
BRANCH  19  21
ATOM     21  C   UNL     1      14.455   1.814  51.133  0.00  0.00    +0.000 C 
BRANCH  21  22
ATOM     22  C   UNL     1      13.895   2.753  52.172  0.00  0.00    +0.000 A 
ATOM     23  C   UNL     1      14.721   3.670  52.825  0.00  0.00    +0.000 A 
ATOM     24  C   UNL     1      14.186   4.455  53.845  0.00  0.00    +0.000 A 
ATOM     25  C   UNL     1      12.845   4.322  54.176  0.00  0.00    +0.000 A 
ATOM     26  C   UNL     1      12.086   3.410  53.465  0.00  0.00    +0.000 A 
ATOM     27  N   UNL     1      12.577   2.621  52.482  0.00  0.00    +0.000 NA
ENDBRANCH  21  22
ENDBRANCH  19  21
ENDBRANCH   9  12
BRANCH   1  28
ATOM     28  C   UNL     1      24.161   2.088  51.214  0.00  0.00    +0.000 C 
BRANCH  28  32
ATOM     29  C   UNL     1      23.492   5.859  51.354  0.00  0.00    +0.000 C 
ATOM     30  C   UNL     1      23.104   4.836  52.428  0.00  0.00    +0.000 C 
ATOM     31  C   UNL     1      24.262   3.910  52.833  0.00  0.00    +0.000 C 
ATOM     32  N   UNL     1      24.943   3.237  51.707  0.00  0.00    +0.000 N 
ATOM     33  C   UNL     1      25.344   4.242  50.705  0.00  0.00    +0.000 C 
ATOM     34  C   UNL     1      24.219   5.152  50.207  0.00  0.00    +0.000 C 
ATOM     35  H   UNL     1      25.815   2.806  52.013  0.00  0.00    +0.000 HD
BRANCH  29  36
ATOM     36  N   UNL     1      24.292   6.950  51.923  0.00  0.00    +0.000 N 
ATOM     37  H   UNL     1      23.672   7.698  52.235  0.00  0.00    +0.000 HD
ATOM     38  H   UNL     1      24.929   7.310  51.213  0.00  0.00    +0.000 HD
ATOM     39  H   UNL     1      24.828   6.600  52.716  0.00  0.00    +0.000 HD
ENDBRANCH  29  36
ENDBRANCH  28  32
ENDBRANCH   1  28
TORSDOF 6
ENDMDL
MODEL 3
REMARK VINA RESULT:    -9.137      2.159      5.315
REMARK INTER + INTRA:         -13.087
REMARK INTER:                 -11.957
REMARK INTRA:                  -1.129
REMARK UNBOUND:                -1.011
REMARK  Name = 
REMARK  6 active torsions:
REMARK  status: ('A' for Active; 'I' for Inactive)
REMARK    1  A    between atoms: N_1  and  C_2
REMARK    2  A    between atoms: N_5  and  C_6
REMARK    3  A    between atoms: C_6  and  C_7
REMARK    4  A    between atoms: N_15  and  C_16
REMARK    5  A    between atoms: N_23  and  C_24
REMARK    6  A    between atoms: C_24  and  C_25
REMARK                            x       y       z     vdW  Elec       q    Type
REMARK                         _______ _______ _______ _____ _____    ______ ____
ROOT
ATOM      1  C   UNL     1      21.552   0.138  53.854  0.00  0.00    +0.000 A 
ATOM      2  C   UNL     1      21.655  -0.885  54.857  0.00  0.00    +0.000 A 
ATOM      3  C   UNL     1      22.977  -1.242  54.952  0.00  0.00    +0.000 A 
ATOM      4  N   UNL     1      23.673  -0.488  54.051  0.00  0.00    +0.000 N 
ATOM      5  N   UNL     1      24.945  -0.719  53.704  0.00  0.00    +0.000 NA
ATOM      6  C   UNL     1      25.398   0.130  52.846  0.00  0.00    +0.000 A 
ATOM      7  N   UNL     1      24.765   1.254  52.396  0.00  0.00    +0.000 NA
ATOM      8  C   UNL     1      23.523   1.495  52.711  0.00  0.00    +0.000 A 
ATOM      9  N   UNL     1      22.929   2.698  52.372  0.00  0.00    +0.000 N 
ATOM     10  C   UNL     1      22.859   0.481  53.514  0.00  0.00    +0.000 A 
ATOM     11  H   UNL     1      22.041   2.850  52.771  0.00  0.00    +0.000 HD
ENDROOT
BRANCH   9  12
ATOM     12  C   UNL     1      23.398   3.747  51.539  0.00  0.00    +0.000 A 
ATOM     13  C   UNL     1      23.850   3.432  50.243  0.00  0.00    +0.000 A 
ATOM     14  C   UNL     1      24.431   4.384  49.382  0.00  0.00    +0.000 A 
ATOM     15  C   UNL     1      24.574   5.688  49.869  0.00  0.00    +0.000 A 
ATOM     16  C   UNL     1      24.065   6.062  51.107  0.00  0.00    +0.000 A 
ATOM     17  C   UNL     1      24.384   7.432  51.225  0.00  0.00    +0.000 A 
ATOM     18  N   UNL     1      25.059   7.903  50.173  0.00  0.00    +0.000 NA
ATOM     19  N   UNL     1      25.181   6.820  49.366  0.00  0.00    +0.000 N 
ATOM     20  C   UNL     1      23.428   5.099  51.923  0.00  0.00    +0.000 A 
BRANCH  19  21
ATOM     21  C   UNL     1      25.840   6.975  48.078  0.00  0.00    +0.000 C 
BRANCH  21  22
ATOM     22  C   UNL     1      27.340   6.860  48.179  0.00  0.00    +0.000 A 
ATOM     23  C   UNL     1      27.958   5.609  48.227  0.00  0.00    +0.000 A 
ATOM     24  C   UNL     1      29.338   5.543  48.416  0.00  0.00    +0.000 A 
ATOM     25  C   UNL     1      30.067   6.718  48.533  0.00  0.00    +0.000 A 
ATOM     26  C   UNL     1      29.385   7.919  48.448  0.00  0.00    +0.000 A 
ATOM     27  N   UNL     1      28.046   8.018  48.283  0.00  0.00    +0.000 NA
ENDBRANCH  21  22
ENDBRANCH  19  21
ENDBRANCH   9  12
BRANCH   1  28
ATOM     28  C   UNL     1      20.219   0.611  53.341  0.00  0.00    +0.000 C 
BRANCH  28  32
ATOM     29  C   UNL     1      17.943   1.590  50.417  0.00  0.00    +0.000 C 
ATOM     30  C   UNL     1      19.433   1.927  50.549  0.00  0.00    +0.000 C 
ATOM     31  C   UNL     1      20.303   0.711  50.905  0.00  0.00    +0.000 C 
ATOM     32  N   UNL     1      19.845  -0.059  52.081  0.00  0.00    +0.000 N 
ATOM     33  C   UNL     1      18.422  -0.408  51.915  0.00  0.00    +0.000 C 
ATOM     34  C   UNL     1      17.489   0.772  51.628  0.00  0.00    +0.000 C 
ATOM     35  H   UNL     1      20.331  -0.952  52.144  0.00  0.00    +0.000 HD
BRANCH  29  36
ATOM     36  N   UNL     1      17.665   0.901  49.152  0.00  0.00    +0.000 N 
ATOM     37  H   UNL     1      16.756   1.197  48.796  0.00  0.00    +0.000 HD
ATOM     38  H   UNL     1      17.656  -0.107  49.309  0.00  0.00    +0.000 HD
ATOM     39  H   UNL     1      18.388   1.134  48.472  0.00  0.00    +0.000 HD
ENDBRANCH  29  36
ENDBRANCH  28  32
ENDBRANCH   1  28
TORSDOF 6
ENDMDL
MODEL 4
REMARK VINA RESULT:    -8.973      4.019      8.018
REMARK INTER + INTRA:         -12.869
REMARK INTER:                 -11.613
REMARK INTRA:                  -1.257
REMARK UNBOUND:                -1.011
REMARK  Name = 
REMARK  6 active torsions:
REMARK  status: ('A' for Active; 'I' for Inactive)
REMARK    1  A    between atoms: N_1  and  C_2
REMARK    2  A    between atoms: N_5  and  C_6
REMARK    3  A    between atoms: C_6  and  C_7
REMARK    4  A    between atoms: N_15  and  C_16
REMARK    5  A    between atoms: N_23  and  C_24
REMARK    6  A    between atoms: C_24  and  C_25
REMARK                            x       y       z     vdW  Elec       q    Type
REMARK                         _______ _______ _______ _____ _____    ______ ____
ROOT
ATOM      1  C   UNL     1      18.557   3.285  49.447  0.00  0.00    +0.000 A 
ATOM      2  C   UNL     1      17.628   4.074  48.688  0.00  0.00    +0.000 A 
ATOM      3  C   UNL     1      18.090   5.366  48.679  0.00  0.00    +0.000 A 
ATOM      4  N   UNL     1      19.249   5.394  49.399  0.00  0.00    +0.000 N 
ATOM      5  N   UNL     1      19.861   6.518  49.794  0.00  0.00    +0.000 NA
ATOM      6  C   UNL     1      20.948   6.300  50.452  0.00  0.00    +0.000 A 
ATOM      7  N   UNL     1      21.556   5.092  50.646  0.00  0.00    +0.000 NA
ATOM      8  C   UNL     1      20.977   3.983  50.281  0.00  0.00    +0.000 A 
ATOM      9  N   UNL     1      21.652   2.777  50.350  0.00  0.00    +0.000 N 
ATOM     10  C   UNL     1      19.645   4.116  49.712  0.00  0.00    +0.000 A 
ATOM     11  H   UNL     1      21.191   2.018  49.924  0.00  0.00    +0.000 HD
ENDROOT
BRANCH   9  12
ATOM     12  C   UNL     1      22.904   2.462  50.940  0.00  0.00    +0.000 A 
ATOM     13  C   UNL     1      22.920   1.749  52.155  0.00  0.00    +0.000 A 
ATOM     14  C   UNL     1      24.104   1.482  52.870  0.00  0.00    +0.000 A 
ATOM     15  C   UNL     1      25.300   1.978  52.341  0.00  0.00    +0.000 A 
ATOM     16  C   UNL     1      25.341   2.612  51.104  0.00  0.00    +0.000 A 
ATOM     17  C   UNL     1      26.701   2.939  50.915  0.00  0.00    +0.000 A 
ATOM     18  N   UNL     1      27.473   2.574  51.943  0.00  0.00    +0.000 NA
ATOM     19  N   UNL     1      26.598   2.007  52.810  0.00  0.00    +0.000 N 
ATOM     20  C   UNL     1      24.144   2.808  50.378  0.00  0.00    +0.000 A 
BRANCH  19  21
ATOM     21  C   UNL     1      27.105   1.444  54.051  0.00  0.00    +0.000 C 
BRANCH  21  22
ATOM     22  C   UNL     1      27.933   0.204  53.827  0.00  0.00    +0.000 A 
ATOM     23  C   UNL     1      29.324   0.245  53.940  0.00  0.00    +0.000 A 
ATOM     24  C   UNL     1      30.062  -0.898  53.633  0.00  0.00    +0.000 A 
ATOM     25  C   UNL     1      29.399  -2.052  53.241  0.00  0.00    +0.000 A 
ATOM     26  C   UNL     1      28.017  -2.021  53.178  0.00  0.00    +0.000 A 
ATOM     27  N   UNL     1      27.273  -0.925  53.453  0.00  0.00    +0.000 NA
ENDBRANCH  21  22
ENDBRANCH  19  21
ENDBRANCH   9  12
BRANCH   1  28
ATOM     28  C   UNL     1      18.254   1.866  49.841  0.00  0.00    +0.000 C 
BRANCH  28  32
ATOM     29  C   UNL     1      18.015  -1.063  52.302  0.00  0.00    +0.000 C 
ATOM     30  C   UNL     1      19.254  -0.195  52.055  0.00  0.00    +0.000 C 
ATOM     31  C   UNL     1      18.961   1.313  52.109  0.00  0.00    +0.000 C 
ATOM     32  N   UNL     1      17.842   1.761  51.254  0.00  0.00    +0.000 N 
ATOM     33  C   UNL     1      16.650   0.941  51.536  0.00  0.00    +0.000 C 
ATOM     34  C   UNL     1      16.858  -0.572  51.429  0.00  0.00    +0.000 C 
ATOM     35  H   UNL     1      17.567   2.716  51.482  0.00  0.00    +0.000 HD
BRANCH  29  36
ATOM     36  N   UNL     1      17.659  -1.087  53.725  0.00  0.00    +0.000 N 
ATOM     37  H   UNL     1      17.344  -0.160  54.012  0.00  0.00    +0.000 HD
ATOM     38  H   UNL     1      18.476  -1.352  54.275  0.00  0.00    +0.000 HD
ATOM     39  H   UNL     1      16.912  -1.763  53.877  0.00  0.00    +0.000 HD
ENDBRANCH  29  36
ENDBRANCH  28  32
ENDBRANCH   1  28
TORSDOF 6
ENDMDL
MODEL 5
REMARK VINA RESULT:    -8.958      1.421      4.685
REMARK INTER + INTRA:         -12.850
REMARK INTER:                 -11.586
REMARK INTRA:                  -1.264
REMARK UNBOUND:                -1.011
REMARK  Name = 
REMARK  6 active torsions:
REMARK  status: ('A' for Active; 'I' for Inactive)
REMARK    1  A    between atoms: N_1  and  C_2
REMARK    2  A    between atoms: N_5  and  C_6
REMARK    3  A    between atoms: C_6  and  C_7
REMARK    4  A    between atoms: N_15  and  C_16
REMARK    5  A    between atoms: N_23  and  C_24
REMARK    6  A    between atoms: C_24  and  C_25
REMARK                            x       y       z     vdW  Elec       q    Type
REMARK                         _______ _______ _______ _____ _____    ______ ____
ROOT
ATOM      1  C   UNL     1      22.736   0.468  52.282  0.00  0.00    +0.000 A 
ATOM      2  C   UNL     1      22.522  -0.451  53.366  0.00  0.00    +0.000 A 
ATOM      3  C   UNL     1      23.702  -0.556  54.059  0.00  0.00    +0.000 A 
ATOM      4  N   UNL     1      24.616   0.249  53.443  0.00  0.00    +0.000 N 
ATOM      5  N   UNL     1      25.929   0.229  53.703  0.00  0.00    +0.000 NA
ATOM      6  C   UNL     1      26.596   1.086  53.008  0.00  0.00    +0.000 A 
ATOM      7  N   UNL     1      26.082   2.046  52.182  0.00  0.00    +0.000 NA
ATOM      8  C   UNL     1      24.809   2.079  51.905  0.00  0.00    +0.000 A 
ATOM      9  N   UNL     1      24.270   3.130  51.184  0.00  0.00    +0.000 N 
ATOM     10  C   UNL     1      24.001   1.018  52.483  0.00  0.00    +0.000 A 
ATOM     11  H   UNL     1      23.286   3.146  51.144  0.00  0.00    +0.000 HD
ENDROOT
BRANCH   9  12
ATOM     12  C   UNL     1      24.914   4.189  50.491  0.00  0.00    +0.000 A 
ATOM     13  C   UNL     1      25.782   3.874  49.428  0.00  0.00    +0.000 A 
ATOM     14  C   UNL     1      26.547   4.843  48.750  0.00  0.00    +0.000 A 
ATOM     15  C   UNL     1      26.436   6.168  49.187  0.00  0.00    +0.000 A 
ATOM     16  C   UNL     1      25.529   6.536  50.173  0.00  0.00    +0.000 A 
ATOM     17  C   UNL     1      25.700   7.930  50.314  0.00  0.00    +0.000 A 
ATOM     18  N   UNL     1      26.648   8.423  49.511  0.00  0.00    +0.000 NA
ATOM     19  N   UNL     1      27.097   7.331  48.846  0.00  0.00    +0.000 N 
ATOM     20  C   UNL     1      24.727   5.549  50.791  0.00  0.00    +0.000 A 
BRANCH  19  21
ATOM     21  C   UNL     1      28.127   7.501  47.833  0.00  0.00    +0.000 C 
BRANCH  21  22
ATOM     22  C   UNL     1      29.514   7.259  48.372  0.00  0.00    +0.000 A 
ATOM     23  C   UNL     1      30.082   5.984  48.338  0.00  0.00    +0.000 A 
ATOM     24  C   UNL     1      31.327   5.782  48.932  0.00  0.00    +0.000 A 
ATOM     25  C   UNL     1      31.981   6.853  49.526  0.00  0.00    +0.000 A 
ATOM     26  C   UNL     1      31.365   8.091  49.496  0.00  0.00    +0.000 A 
ATOM     27  N   UNL     1      30.151   8.317  48.943  0.00  0.00    +0.000 NA
ENDBRANCH  21  22
ENDBRANCH  19  21
ENDBRANCH   9  12
BRANCH   1  28
ATOM     28  C   UNL     1      21.716   0.658  51.193  0.00  0.00    +0.000 C 
BRANCH  28  32
ATOM     29  C   UNL     1      19.517   3.728  50.541  0.00  0.00    +0.000 C 
ATOM     30  C   UNL     1      19.474   2.410  49.761  0.00  0.00    +0.000 C 
ATOM     31  C   UNL     1      19.390   1.170  50.665  0.00  0.00    +0.000 C 
ATOM     32  N   UNL     1      20.415   1.104  51.728  0.00  0.00    +0.000 N 
ATOM     33  C   UNL     1      20.413   2.365  52.492  0.00  0.00    +0.000 C 
ATOM     34  C   UNL     1      20.565   3.637  51.653  0.00  0.00    +0.000 C 
ATOM     35  H   UNL     1      20.189   0.381  52.410  0.00  0.00    +0.000 HD
BRANCH  29  36
ATOM     36  N   UNL     1      18.192   4.081  51.061  0.00  0.00    +0.000 N 
ATOM     37  H   UNL     1      17.474   3.729  50.429  0.00  0.00    +0.000 HD
ATOM     38  H   UNL     1      18.114   5.096  51.132  0.00  0.00    +0.000 HD
ATOM     39  H   UNL     1      18.067   3.665  51.983  0.00  0.00    +0.000 HD
ENDBRANCH  29  36
ENDBRANCH  28  32
ENDBRANCH   1  28
TORSDOF 6
ENDMDL
MODEL 6
REMARK VINA RESULT:    -8.487      3.545      9.627
REMARK INTER + INTRA:         -12.228
REMARK INTER:                 -11.627
REMARK INTRA:                  -0.600
REMARK UNBOUND:                -1.011
REMARK  Name = 
REMARK  6 active torsions:
REMARK  status: ('A' for Active; 'I' for Inactive)
REMARK    1  A    between atoms: N_1  and  C_2
REMARK    2  A    between atoms: N_5  and  C_6
REMARK    3  A    between atoms: C_6  and  C_7
REMARK    4  A    between atoms: N_15  and  C_16
REMARK    5  A    between atoms: N_23  and  C_24
REMARK    6  A    between atoms: C_24  and  C_25
REMARK                            x       y       z     vdW  Elec       q    Type
REMARK                         _______ _______ _______ _____ _____    ______ ____
ROOT
ATOM      1  C   UNL     1      25.913   2.981  50.337  0.00  0.00    +0.000 A 
ATOM      2  C   UNL     1      26.746   4.119  50.066  0.00  0.00    +0.000 A 
ATOM      3  C   UNL     1      25.979   5.047  49.406  0.00  0.00    +0.000 A 
ATOM      4  N   UNL     1      24.728   4.521  49.262  0.00  0.00    +0.000 N 
ATOM      5  N   UNL     1      23.780   5.043  48.474  0.00  0.00    +0.000 NA
ATOM      6  C   UNL     1      22.673   4.383  48.506  0.00  0.00    +0.000 A 
ATOM      7  N   UNL     1      22.369   3.339  49.334  0.00  0.00    +0.000 NA
ATOM      8  C   UNL     1      23.276   2.806  50.103  0.00  0.00    +0.000 A 
ATOM      9  N   UNL     1      22.935   1.845  51.039  0.00  0.00    +0.000 N 
ATOM     10  C   UNL     1      24.618   3.355  49.982  0.00  0.00    +0.000 A 
ATOM     11  H   UNL     1      23.654   1.604  51.668  0.00  0.00    +0.000 HD
ENDROOT
BRANCH   9  12
ATOM     12  C   UNL     1      21.711   1.153  51.234  0.00  0.00    +0.000 A 
ATOM     13  C   UNL     1      20.700   1.278  50.262  0.00  0.00    +0.000 A 
ATOM     14  C   UNL     1      19.417   0.717  50.415  0.00  0.00    +0.000 A 
ATOM     15  C   UNL     1      19.154   0.030  51.605  0.00  0.00    +0.000 A 
ATOM     16  C   UNL     1      20.148  -0.190  52.552  0.00  0.00    +0.000 A 
ATOM     17  C   UNL     1      19.508  -0.921  53.577  0.00  0.00    +0.000 A 
ATOM     18  N   UNL     1      18.213  -1.138  53.333  0.00  0.00    +0.000 NA
ATOM     19  N   UNL     1      18.012  -0.534  52.135  0.00  0.00    +0.000 N 
ATOM     20  C   UNL     1      21.445   0.329  52.341  0.00  0.00    +0.000 A 
BRANCH  19  21
ATOM     21  C   UNL     1      16.694  -0.608  51.524  0.00  0.00    +0.000 C 
BRANCH  21  22
ATOM     22  C   UNL     1      15.791   0.518  51.961  0.00  0.00    +0.000 A 
ATOM     23  C   UNL     1      16.048   1.833  51.569  0.00  0.00    +0.000 A 
ATOM     24  C   UNL     1      15.246   2.858  52.070  0.00  0.00    +0.000 A 
ATOM     25  C   UNL     1      14.202   2.547  52.930  0.00  0.00    +0.000 A 
ATOM     26  C   UNL     1      13.995   1.217  53.251  0.00  0.00    +0.000 A 
ATOM     27  N   UNL     1      14.764   0.202  52.796  0.00  0.00    +0.000 NA
ENDBRANCH  21  22
ENDBRANCH  19  21
ENDBRANCH   9  12
BRANCH   1  28
ATOM     28  C   UNL     1      26.482   1.691  50.861  0.00  0.00    +0.000 C 
BRANCH  28  32
ATOM     29  C   UNL     1      28.386  -0.204  53.594  0.00  0.00    +0.000 C 
ATOM     30  C   UNL     1      28.686   1.219  53.111  0.00  0.00    +0.000 C 
ATOM     31  C   UNL     1      27.443   2.120  53.061  0.00  0.00    +0.000 C 
ATOM     32  N   UNL     1      26.296   1.557  52.318  0.00  0.00    +0.000 N 
ATOM     33  C   UNL     1      25.997   0.206  52.825  0.00  0.00    +0.000 C 
ATOM     34  C   UNL     1      27.182  -0.764  52.834  0.00  0.00    +0.000 C 
ATOM     35  H   UNL     1      25.448   2.098  52.490  0.00  0.00    +0.000 HD
BRANCH  29  36
ATOM     36  N   UNL     1      28.185  -0.241  55.047  0.00  0.00    +0.000 N 
ATOM     37  H   UNL     1      29.060  -0.007  55.517  0.00  0.00    +0.000 HD
ATOM     38  H   UNL     1      27.890  -1.176  55.325  0.00  0.00    +0.000 HD
ATOM     39  H   UNL     1      27.468   0.435  55.308  0.00  0.00    +0.000 HD
ENDBRANCH  29  36
ENDBRANCH  28  32
ENDBRANCH   1  28
TORSDOF 6
ENDMDL
MODEL 7
REMARK VINA RESULT:    -8.481      2.411      5.618
REMARK INTER + INTRA:         -12.220
REMARK INTER:                 -11.166
REMARK INTRA:                  -1.054
REMARK UNBOUND:                -1.011
REMARK  Name = 
REMARK  6 active torsions:
REMARK  status: ('A' for Active; 'I' for Inactive)
REMARK    1  A    between atoms: N_1  and  C_2
REMARK    2  A    between atoms: N_5  and  C_6
REMARK    3  A    between atoms: C_6  and  C_7
REMARK    4  A    between atoms: N_15  and  C_16
REMARK    5  A    between atoms: N_23  and  C_24
REMARK    6  A    between atoms: C_24  and  C_25
REMARK                            x       y       z     vdW  Elec       q    Type
REMARK                         _______ _______ _______ _____ _____    ______ ____
ROOT
ATOM      1  C   UNL     1      22.246   0.216  52.291  0.00  0.00    +0.000 A 
ATOM      2  C   UNL     1      21.900  -0.713  53.331  0.00  0.00    +0.000 A 
ATOM      3  C   UNL     1      23.021  -0.916  54.097  0.00  0.00    +0.000 A 
ATOM      4  N   UNL     1      24.025  -0.160  53.565  0.00  0.00    +0.000 N 
ATOM      5  N   UNL     1      25.314  -0.276  53.909  0.00  0.00    +0.000 NA
ATOM      6  C   UNL     1      26.082   0.551  53.285  0.00  0.00    +0.000 A 
ATOM      7  N   UNL     1      25.689   1.563  52.455  0.00  0.00    +0.000 NA
ATOM      8  C   UNL     1      24.442   1.690  52.097  0.00  0.00    +0.000 A 
ATOM      9  N   UNL     1      24.024   2.793  51.373  0.00  0.00    +0.000 N 
ATOM     10  C   UNL     1      23.529   0.672  52.590  0.00  0.00    +0.000 A 
ATOM     11  H   UNL     1      23.048   2.877  51.270  0.00  0.00    +0.000 HD
ENDROOT
BRANCH   9  12
ATOM     12  C   UNL     1      24.782   3.822  50.755  0.00  0.00    +0.000 A 
ATOM     13  C   UNL     1      24.270   5.134  50.756  0.00  0.00    +0.000 A 
ATOM     14  C   UNL     1      24.894   6.201  50.079  0.00  0.00    +0.000 A 
ATOM     15  C   UNL     1      26.060   5.911  49.363  0.00  0.00    +0.000 A 
ATOM     16  C   UNL     1      26.646   4.651  49.404  0.00  0.00    +0.000 A 
ATOM     17  C   UNL     1      27.793   4.763  48.588  0.00  0.00    +0.000 A 
ATOM     18  N   UNL     1      27.930   5.977  48.045  0.00  0.00    +0.000 NA
ATOM     19  N   UNL     1      26.854   6.656  48.514  0.00  0.00    +0.000 N 
ATOM     20  C   UNL     1      26.032   3.617  50.146  0.00  0.00    +0.000 A 
BRANCH  19  21
ATOM     21  C   UNL     1      26.698   8.057  48.155  0.00  0.00    +0.000 C 
BRANCH  21  22
ATOM     22  C   UNL     1      26.273   8.242  46.720  0.00  0.00    +0.000 A 
ATOM     23  C   UNL     1      24.951   8.014  46.332  0.00  0.00    +0.000 A 
ATOM     24  C   UNL     1      24.618   8.103  44.981  0.00  0.00    +0.000 A 
ATOM     25  C   UNL     1      25.600   8.432  44.057  0.00  0.00    +0.000 A 
ATOM     26  C   UNL     1      26.881   8.669  44.523  0.00  0.00    +0.000 A 
ATOM     27  N   UNL     1      27.241   8.574  45.824  0.00  0.00    +0.000 NA
ENDBRANCH  21  22
ENDBRANCH  19  21
ENDBRANCH   9  12
BRANCH   1  28
ATOM     28  C   UNL     1      21.316   0.501  51.144  0.00  0.00    +0.000 C 
BRANCH  28  32
ATOM     29  C   UNL     1      19.457   3.750  50.319  0.00  0.00    +0.000 C 
ATOM     30  C   UNL     1      19.328   2.423  49.563  0.00  0.00    +0.000 C 
ATOM     31  C   UNL     1      19.080   1.219  50.485  0.00  0.00    +0.000 C 
ATOM     32  N   UNL     1      20.039   1.082  51.601  0.00  0.00    +0.000 N 
ATOM     33  C   UNL     1      20.119   2.355  52.340  0.00  0.00    +0.000 C 
ATOM     34  C   UNL     1      20.434   3.586  51.486  0.00  0.00    +0.000 C 
ATOM     35  H   UNL     1      19.711   0.400  52.284  0.00  0.00    +0.000 HD
BRANCH  29  36
ATOM     36  N   UNL     1      18.147   4.239  50.762  0.00  0.00    +0.000 N 
ATOM     37  H   UNL     1      17.501   3.454  50.844  0.00  0.00    +0.000 HD
ATOM     38  H   UNL     1      17.785   4.906  50.080  0.00  0.00    +0.000 HD
ATOM     39  H   UNL     1      18.244   4.696  51.668  0.00  0.00    +0.000 HD
ENDBRANCH  29  36
ENDBRANCH  28  32
ENDBRANCH   1  28
TORSDOF 6
ENDMDL
MODEL 8
REMARK VINA RESULT:    -8.373      4.207      8.550
REMARK INTER + INTRA:         -12.077
REMARK INTER:                 -10.692
REMARK INTRA:                  -1.385
REMARK UNBOUND:                -1.011
REMARK  Name = 
REMARK  6 active torsions:
REMARK  status: ('A' for Active; 'I' for Inactive)
REMARK    1  A    between atoms: N_1  and  C_2
REMARK    2  A    between atoms: N_5  and  C_6
REMARK    3  A    between atoms: C_6  and  C_7
REMARK    4  A    between atoms: N_15  and  C_16
REMARK    5  A    between atoms: N_23  and  C_24
REMARK    6  A    between atoms: C_24  and  C_25
REMARK                            x       y       z     vdW  Elec       q    Type
REMARK                         _______ _______ _______ _____ _____    ______ ____
ROOT
ATOM      1  C   UNL     1      16.444  -0.073  50.783  0.00  0.00    +0.000 A 
ATOM      2  C   UNL     1      15.287  -0.675  51.384  0.00  0.00    +0.000 A 
ATOM      3  C   UNL     1      15.694  -1.293  52.540  0.00  0.00    +0.000 A 
ATOM      4  N   UNL     1      17.040  -1.097  52.661  0.00  0.00    +0.000 N 
ATOM      5  N   UNL     1      17.816  -1.742  53.540  0.00  0.00    +0.000 NA
ATOM      6  C   UNL     1      19.054  -1.385  53.481  0.00  0.00    +0.000 A 
ATOM      7  N   UNL     1      19.575  -0.368  52.732  0.00  0.00    +0.000 NA
ATOM      8  C   UNL     1      18.843   0.268  51.862  0.00  0.00    +0.000 A 
ATOM      9  N   UNL     1      19.332   1.385  51.208  0.00  0.00    +0.000 N 
ATOM     10  C   UNL     1      17.477  -0.206  51.709  0.00  0.00    +0.000 A 
ATOM     11  H   UNL     1      18.666   1.882  50.678  0.00  0.00    +0.000 HD
ENDROOT
BRANCH   9  12
ATOM     12  C   UNL     1      20.643   1.928  51.180  0.00  0.00    +0.000 A 
ATOM     13  C   UNL     1      21.600   1.346  50.326  0.00  0.00    +0.000 A 
ATOM     14  C   UNL     1      22.951   1.743  50.305  0.00  0.00    +0.000 A 
ATOM     15  C   UNL     1      23.339   2.748  51.198  0.00  0.00    +0.000 A 
ATOM     16  C   UNL     1      22.412   3.408  51.997  0.00  0.00    +0.000 A 
ATOM     17  C   UNL     1      23.174   4.347  52.726  0.00  0.00    +0.000 A 
ATOM     18  N   UNL     1      24.480   4.288  52.447  0.00  0.00    +0.000 NA
ATOM     19  N   UNL     1      24.562   3.295  51.527  0.00  0.00    +0.000 N 
ATOM     20  C   UNL     1      21.051   3.031  51.949  0.00  0.00    +0.000 A 
BRANCH  19  21
ATOM     21  C   UNL     1      25.859   2.977  50.952  0.00  0.00    +0.000 C 
BRANCH  21  22
ATOM     22  C   UNL     1      26.638   1.995  51.790  0.00  0.00    +0.000 A 
ATOM     23  C   UNL     1      26.220   0.668  51.908  0.00  0.00    +0.000 A 
ATOM     24  C   UNL     1      26.912  -0.186  52.766  0.00  0.00    +0.000 A 
ATOM     25  C   UNL     1      28.008   0.296  53.469  0.00  0.00    +0.000 A 
ATOM     26  C   UNL     1      28.376   1.616  53.278  0.00  0.00    +0.000 A 
ATOM     27  N   UNL     1      27.716   2.474  52.466  0.00  0.00    +0.000 NA
ENDBRANCH  21  22
ENDBRANCH  19  21
ENDBRANCH   9  12
BRANCH   1  28
ATOM     28  C   UNL     1      16.403   0.506  49.395  0.00  0.00    +0.000 C 
BRANCH  28  32
ATOM     29  C   UNL     1      16.960   4.226  48.660  0.00  0.00    +0.000 C 
ATOM     30  C   UNL     1      16.703   3.133  47.618  0.00  0.00    +0.000 C 
ATOM     31  C   UNL     1      15.492   2.248  47.950  0.00  0.00    +0.000 C 
ATOM     32  N   UNL     1      15.498   1.669  49.310  0.00  0.00    +0.000 N 
ATOM     33  C   UNL     1      15.705   2.741  50.300  0.00  0.00    +0.000 C 
ATOM     34  C   UNL     1      16.939   3.617  50.065  0.00  0.00    +0.000 C 
ATOM     35  H   UNL     1      14.590   1.267  49.540  0.00  0.00    +0.000 HD
BRANCH  29  36
ATOM     36  N   UNL     1      15.999   5.327  48.524  0.00  0.00    +0.000 N 
ATOM     37  H   UNL     1      16.452   6.119  48.069  0.00  0.00    +0.000 HD
ATOM     38  H   UNL     1      15.671   5.608  49.448  0.00  0.00    +0.000 HD
ATOM     39  H   UNL     1      15.208   5.018  47.960  0.00  0.00    +0.000 HD
ENDBRANCH  29  36
ENDBRANCH  28  32
ENDBRANCH   1  28
TORSDOF 6
ENDMDL
MODEL 9
REMARK VINA RESULT:    -8.162      3.953     10.415
REMARK INTER + INTRA:         -11.798
REMARK INTER:                 -11.001
REMARK INTRA:                  -0.797
REMARK UNBOUND:                -1.011
REMARK  Name = 
REMARK  6 active torsions:
REMARK  status: ('A' for Active; 'I' for Inactive)
REMARK    1  A    between atoms: N_1  and  C_2
REMARK    2  A    between atoms: N_5  and  C_6
REMARK    3  A    between atoms: C_6  and  C_7
REMARK    4  A    between atoms: N_15  and  C_16
REMARK    5  A    between atoms: N_23  and  C_24
REMARK    6  A    between atoms: C_24  and  C_25
REMARK                            x       y       z     vdW  Elec       q    Type
REMARK                         _______ _______ _______ _____ _____    ______ ____
ROOT
ATOM      1  C   UNL     1      25.282   2.249  51.681  0.00  0.00    +0.000 A 
ATOM      2  C   UNL     1      26.688   1.969  51.763  0.00  0.00    +0.000 A 
ATOM      3  C   UNL     1      26.839   0.805  52.474  0.00  0.00    +0.000 A 
ATOM      4  N   UNL     1      25.593   0.374  52.828  0.00  0.00    +0.000 N 
ATOM      5  N   UNL     1      25.360  -0.601  53.714  0.00  0.00    +0.000 NA
ATOM      6  C   UNL     1      24.105  -0.847  53.880  0.00  0.00    +0.000 A 
ATOM      7  N   UNL     1      23.068  -0.317  53.166  0.00  0.00    +0.000 NA
ATOM      8  C   UNL     1      23.267   0.641  52.305  0.00  0.00    +0.000 A 
ATOM      9  N   UNL     1      22.242   1.079  51.484  0.00  0.00    +0.000 N 
ATOM     10  C   UNL     1      24.632   1.130  52.198  0.00  0.00    +0.000 A 
ATOM     11  H   UNL     1      22.517   1.702  50.772  0.00  0.00    +0.000 HD
ENDROOT
BRANCH   9  12
ATOM     12  C   UNL     1      20.857   0.771  51.509  0.00  0.00    +0.000 A 
ATOM     13  C   UNL     1      20.005   1.410  50.587  0.00  0.00    +0.000 A 
ATOM     14  C   UNL     1      18.605   1.252  50.601  0.00  0.00    +0.000 A 
ATOM     15  C   UNL     1      18.061   0.437  51.599  0.00  0.00    +0.000 A 
ATOM     16  C   UNL     1      18.869  -0.279  52.474  0.00  0.00    +0.000 A 
ATOM     17  C   UNL     1      17.966  -0.984  53.299  0.00  0.00    +0.000 A 
ATOM     18  N   UNL     1      16.686  -0.733  53.005  0.00  0.00    +0.000 NA
ATOM     19  N   UNL     1      16.766   0.149  51.979  0.00  0.00    +0.000 N 
ATOM     20  C   UNL     1      20.275  -0.151  52.394  0.00  0.00    +0.000 A 
BRANCH  19  21
ATOM     21  C   UNL     1      15.535   0.620  51.361  0.00  0.00    +0.000 C 
BRANCH  21  22
ATOM     22  C   UNL     1      14.979   1.845  52.042  0.00  0.00    +0.000 A 
ATOM     23  C   UNL     1      15.704   3.037  52.072  0.00  0.00    +0.000 A 
ATOM     24  C   UNL     1      15.199   4.119  52.792  0.00  0.00    +0.000 A 
ATOM     25  C   UNL     1      13.981   3.993  53.446  0.00  0.00    +0.000 A 
ATOM     26  C   UNL     1      13.309   2.787  53.347  0.00  0.00    +0.000 A 
ATOM     27  N   UNL     1      13.780   1.714  52.672  0.00  0.00    +0.000 NA
ENDBRANCH  21  22
ENDBRANCH  19  21
ENDBRANCH   9  12
BRANCH   1  28
ATOM     28  C   UNL     1      24.766   3.560  51.154  0.00  0.00    +0.000 C 
BRANCH  28  32
ATOM     29  C   UNL     1      22.581   5.385  48.588  0.00  0.00    +0.000 C 
ATOM     30  C   UNL     1      23.861   5.932  49.229  0.00  0.00    +0.000 C 
ATOM     31  C   UNL     1      25.041   4.949  49.167  0.00  0.00    +0.000 C 
ATOM     32  N   UNL     1      24.749   3.594  49.679  0.00  0.00    +0.000 N 
ATOM     33  C   UNL     1      23.539   3.069  49.020  0.00  0.00    +0.000 C 
ATOM     34  C   UNL     1      22.305   3.972  49.107  0.00  0.00    +0.000 C 
ATOM     35  H   UNL     1      25.491   2.941  49.428  0.00  0.00    +0.000 HD
BRANCH  29  36
ATOM     36  N   UNL     1      22.661   5.426  47.123  0.00  0.00    +0.000 N 
ATOM     37  H   UNL     1      22.283   6.312  46.787  0.00  0.00    +0.000 HD
ATOM     38  H   UNL     1      22.120   4.656  46.731  0.00  0.00    +0.000 HD
ATOM     39  H   UNL     1      23.635   5.341  46.834  0.00  0.00    +0.000 HD
ENDBRANCH  29  36
ENDBRANCH  28  32
ENDBRANCH   1  28
TORSDOF 6
ENDMDL
