REMARK  Name = 
REMARK  9 active torsions:
REMARK  status: ('A' for Active; 'I' for Inactive)
REMARK    1  A    between atoms: C_2  and  C_3
REMARK    2  A    between atoms: C_4  and  C_5
REMARK    3  A    between atoms: C_5  and  N_6
REMARK    4  A    between atoms: N_6  and  C_7
REMARK    5  A    between atoms: N_10  and  C_11
REMARK    6  A    between atoms: C_14  and  N_15
REMARK    7  A    between atoms: N_15  and  C_16
REMARK    8  A    between atoms: C_29  and  O_30
REMARK    9  A    between atoms: O_30  and  C_31
REMARK                            x       y       z     vdW  Elec       q    Type
REMARK                         _______ _______ _______ _____ _____    ______ ____
ROOT
ATOM      1  C   UNL     1       2.385   2.409   0.770  0.00  0.00    +0.000 A 
ATOM      2  C   UNL     1       2.887   3.658   0.370  0.00  0.00    +0.000 A 
ATOM      3  C   UNL     1       2.220   4.862   0.703  0.00  0.00    +0.000 A 
ATOM      4  C   UNL     1       2.629   6.157   0.333  0.00  0.00    +0.000 A 
ATOM      5  N   UNL     1       1.970   7.264   0.744  0.00  0.00    +0.000 NA
ATOM      6  C   UNL     1       0.897   7.070   1.513  0.00  0.00    +0.000 A 
ATOM      7  N   UNL     1       0.409   5.890   1.898  0.00  0.00    +0.000 NA
ATOM      8  C   UNL     1       1.070   4.803   1.494  0.00  0.00    +0.000 A 
ATOM      9  C   UNL     1       0.586   3.559   1.877  0.00  0.00    +0.000 A 
ATOM     10  C   UNL     1       1.192   2.354   1.495  0.00  0.00    +0.000 A 
ENDROOT
BRANCH   1  13
ATOM     11  O   UNL     1       5.250   1.909   0.943  0.00  0.00    +0.000 OA
ATOM     12  C   UNL     1       4.457   1.120   0.450  0.00  0.00    +0.000 C 
ATOM     13  N   UNL     1       3.085   1.252   0.395  0.00  0.00    +0.000 N 
ATOM     14  H   UNL     1       2.562   0.484   0.072  0.00  0.00    +0.000 HD
BRANCH  12  15
ATOM     15  C   UNL     1       4.883  -0.156  -0.168  0.00  0.00    +0.000 C 
ATOM     16  C   UNL     1       6.141  -0.624  -0.104  0.00  0.00    +0.000 C 
BRANCH  16  17
ATOM     17  C   UNL     1       6.645  -1.823  -0.862  0.00  0.00    +0.000 C 
BRANCH  17  18
ATOM     18  N   UNL     1       5.888  -2.014  -2.103  0.00  0.00    +0.000 N 
ATOM     19  H   UNL     1       5.986  -1.170  -2.667  0.00  0.00    +0.000 HD
ATOM     20  H   UNL     1       4.925  -2.204  -1.826  0.00  0.00    +0.000 HD
BRANCH  18  21
ATOM     21  C   UNL     1       6.314  -3.152  -2.912  0.00  0.00    +0.000 C 
ATOM     22  C   UNL     1       5.543  -3.392  -4.184  0.00  0.00    +0.000 C 
ATOM     23  C   UNL     1       5.406  -4.345  -3.034  0.00  0.00    +0.000 C 
ENDBRANCH  18  21
ENDBRANCH  17  18
ENDBRANCH  16  17
ENDBRANCH  12  15
ENDBRANCH   1  13
BRANCH   4  24
ATOM     24  N   UNL     1       3.742   6.326  -0.533  0.00  0.00    +0.000 N 
ATOM     25  H   UNL     1       3.962   5.579  -1.135  0.00  0.00    +0.000 HD
BRANCH  24  26
ATOM     26  C   UNL     1       4.559   7.476  -0.603  0.00  0.00    +0.000 A 
ATOM     27  C   UNL     1       5.177   7.838  -1.809  0.00  0.00    +0.000 A 
ATOM     28  C   UNL     1       6.029   8.946  -1.869  0.00  0.00    +0.000 A 
ATOM     29  C   UNL     1       6.288   9.682  -0.717  0.00  0.00    +0.000 A 
ATOM     30  F   UNL     1       7.113  10.737  -0.796  0.00  0.00    +0.000 F 
ATOM     31  C   UNL     1       5.711   9.319   0.494  0.00  0.00    +0.000 A 
ATOM     32 CL   UNL     1       6.046  10.204   1.933  0.00  0.00    +0.000 Cl
ATOM     33  C   UNL     1       4.859   8.218   0.551  0.00  0.00    +0.000 A 
ENDBRANCH  24  26
ENDBRANCH   4  24
BRANCH  10  34
ATOM     34  O   UNL     1       0.561   1.269   2.035  0.00  0.00    +0.000 OA
BRANCH  34  35
ATOM     35  C   UNL     1       0.564   0.021   1.369  0.00  0.00    +0.000 C 
ATOM     36  F   UNL     1       0.618   0.188   0.024  0.00  0.00    +0.000 F 
ATOM     37  F   UNL     1       1.676  -0.669   1.723  0.00  0.00    +0.000 F 
ENDBRANCH  34  35
ENDBRANCH  10  34
TORSDOF 9
