REMARK  Name = 
REMARK  6 active torsions:
REMARK  status: ('A' for Active; 'I' for Inactive)
REMARK    1  A    between atoms: C_6  and  N_7
REMARK    2  A    between atoms: C_15  and  N_16
REMARK    3  A    between atoms: N_16  and  N_17
REMARK    4  A    between atoms: N_18  and  C_19
REMARK    5  A    between atoms: C_19  and  C_20
REMARK    6  A    between atoms: C_20  and  N_21
REMARK                            x       y       z     vdW  Elec       q    Type
REMARK                         _______ _______ _______ _____ _____    ______ ____
ROOT
ATOM      1  N   UNL     1       3.249   2.663  -0.305  0.00  0.00    +0.000 N 
ATOM      2  C   UNL     1       2.555   3.894  -0.265  0.00  0.00    +0.000 A 
ATOM      3  N   UNL     1       2.757   4.786  -1.250  0.00  0.00    +0.000 NA
ATOM      4  C   UNL     1       2.060   5.922  -1.178  0.00  0.00    +0.000 A 
ATOM      5  N   UNL     1       1.173   6.249  -0.230  0.00  0.00    +0.000 NA
ATOM      6  C   UNL     1       0.951   5.335   0.724  0.00  0.00    +0.000 A 
ATOM      7  C   UNL     1      -0.046   5.557   1.665  0.00  0.00    +0.000 A 
ATOM      8  C   UNL     1      -0.410   4.575   2.599  0.00  0.00    +0.000 A 
ATOM      9  C   UNL     1       0.265   3.356   2.647  0.00  0.00    +0.000 A 
ATOM     10  C   UNL     1       1.351   3.177   1.789  0.00  0.00    +0.000 A 
ATOM     11  C   UNL     1       1.652   4.126   0.781  0.00  0.00    +0.000 A 
ATOM     12  H   UNL     1       3.598   2.333   0.554  0.00  0.00    +0.000 HD
ENDROOT
BRANCH   1  18
ATOM     13 BR   UNL     1       1.769   1.063  -5.143  0.00  0.00    +0.000 Br
ATOM     14  C   UNL     1       2.904   1.012  -3.629  0.00  0.00    +0.000 A 
ATOM     15  C   UNL     1       3.940   0.085  -3.578  0.00  0.00    +0.000 A 
ATOM     16  C   UNL     1       4.748   0.024  -2.446  0.00  0.00    +0.000 A 
ATOM     17  C   UNL     1       4.519   0.893  -1.375  0.00  0.00    +0.000 A 
ATOM     18  C   UNL     1       3.500   1.855  -1.429  0.00  0.00    +0.000 A 
ATOM     19  C   UNL     1       2.680   1.890  -2.567  0.00  0.00    +0.000 A 
ENDBRANCH   1  18
BRANCH   9  20
ATOM     20  N   UNL     1      -0.122   2.304   3.499  0.00  0.00    +0.000 N 
ATOM     21  H   UNL     1       0.541   1.781   4.006  0.00  0.00    +0.000 HD
BRANCH  20  22
ATOM     22  N   UNL     1      -1.448   2.044   3.587  0.00  0.00    +0.000 NA
ATOM     23  N   UNL     1      -1.534   0.811   3.757  0.00  0.00    +0.000 NA
BRANCH  23  24
ATOM     24  C   UNL     1      -2.922   0.355   3.980  0.00  0.00    +0.000 C 
BRANCH  24  25
ATOM     25  C   UNL     1      -3.444  -0.368   2.725  0.00  0.00    +0.000 C 
BRANCH  25  26
ATOM     26  N   UNL     1      -4.742  -1.059   2.888  0.00  0.00    +0.000 N 
ATOM     27  C   UNL     1      -5.145  -1.736   1.629  0.00  0.00    +0.000 C 
ATOM     28  C   UNL     1      -5.616  -0.769   0.526  0.00  0.00    +0.000 C 
ATOM     29  O   UNL     1      -6.680   0.077   0.983  0.00  0.00    +0.000 OA
ATOM     30  C   UNL     1      -6.309   0.788   2.170  0.00  0.00    +0.000 C 
ATOM     31  C   UNL     1      -5.859  -0.172   3.282  0.00  0.00    +0.000 C 
ATOM     32  H   UNL     1      -4.579  -1.725   3.644  0.00  0.00    +0.000 HD
ENDBRANCH  25  26
ENDBRANCH  24  25
ENDBRANCH  23  24
ENDBRANCH  20  22
ENDBRANCH   9  20
TORSDOF 6
