
     RDKit          3D

 32 34  0  0  0  0  0  0  0  0999 V2000
    5.5946    0.5563    1.9963 N   0  0  0  0  0  0  0  0  0  0  0  0
    4.3924    0.3543    1.2530 C   0  0  0  0  0  0  0  0  0  0  0  0
    4.4429   -0.1148   -0.0627 C   0  0  0  0  0  0  0  0  0  0  0  0
    3.2536   -0.3035   -0.7705 C   0  0  0  0  0  0  0  0  0  0  0  0
    3.2989   -0.7400   -2.0548 N   0  0  0  0  0  0  0  0  0  0  0  0
    2.1628   -0.9237   -2.7701 C   0  0  0  0  0  0  0  0  0  0  0  0
    0.9549   -0.6812   -2.2033 N   0  0  0  0  0  0  0  0  0  0  0  0
    0.8343   -0.2486   -0.9173 C   0  0  0  0  0  0  0  0  0  0  0  0
   -0.4838   -0.0425   -0.3752 N   0  0  0  0  0  0  0  0  0  0  0  0
   -1.6647   -0.0454   -1.2399 C   0  0  0  0  0  0  0  0  0  0  0  0
   -2.9080    0.2508   -0.4447 C   0  0  0  0  0  0  0  0  0  0  0  0
   -3.3119    1.5789   -0.2318 C   0  0  0  0  0  0  0  0  0  0  0  0
   -4.4449    1.8548    0.5396 C   0  0  0  0  0  0  0  0  0  0  0  0
   -5.1744    0.8094    1.1125 C   0  0  0  0  0  0  0  0  0  0  0  0
   -4.7692   -0.5152    0.9192 C   0  0  0  0  0  0  0  0  0  0  0  0
   -5.7586   -1.9422    1.7144 Br  0  0  0  0  0  0  0  0  0  0  0  0
   -3.6356   -0.7945    0.1474 C   0  0  0  0  0  0  0  0  0  0  0  0
    2.0098   -0.0331   -0.1559 C   0  0  0  0  0  0  0  0  0  0  0  0
    2.0147    0.4527    1.1671 C   0  0  0  0  0  0  0  0  0  0  0  0
    3.1908    0.6282    1.8265 N   0  0  0  0  0  0  0  0  0  0  0  0
    5.5526    0.9099    2.9778 H   0  0  0  0  0  0  0  0  0  0  0  0
    6.5282    0.3546    1.5736 H   0  0  0  0  0  0  0  0  0  0  0  0
    5.3964   -0.3264   -0.5319 H   0  0  0  0  0  0  0  0  0  0  0  0
    2.2191   -1.2688   -3.7932 H   0  0  0  0  0  0  0  0  0  0  0  0
   -0.6267    0.0486    0.6538 H   0  0  0  0  0  0  0  0  0  0  0  0
   -1.7587   -1.0357   -1.7367 H   0  0  0  0  0  0  0  0  0  0  0  0
   -1.5401    0.7200   -2.0369 H   0  0  0  0  0  0  0  0  0  0  0  0
   -2.7493    2.3987   -0.6613 H   0  0  0  0  0  0  0  0  0  0  0  0
   -4.7553    2.8797    0.6966 H   0  0  0  0  0  0  0  0  0  0  0  0
   -6.0497    1.0294    1.7100 H   0  0  0  0  0  0  0  0  0  0  0  0
   -3.3219   -1.8222    0.0110 H   0  0  0  0  0  0  0  0  0  0  0  0
    1.1070    0.7119    1.6872 H   0  0  0  0  0  0  0  0  0  0  0  0
  1  2  1  0
  2  3  2  0
  3  4  1  0
  4  5  2  0
  5  6  1  0
  6  7  2  0
  7  8  1  0
  8  9  1  0
  9 10  1  0
 10 11  1  0
 11 12  2  0
 12 13  1  0
 13 14  2  0
 14 15  1  0
 15 16  1  0
 15 17  2  0
  8 18  2  0
 18 19  1  0
 19 20  2  0
 20  2  1  0
 18  4  1  0
 17 11  1  0
  1 21  1  0
  1 22  1  0
  3 23  1  0
  6 24  1  0
  9 25  1  0
 10 26  1  0
 10 27  1  0
 12 28  1  0
 13 29  1  0
 14 30  1  0
 17 31  1  0
 19 32  1  0
M  END
