MODEL 1
REMARK VINA RESULT:    -9.007      0.000      0.000
REMARK INTER + INTRA:          -9.612
REMARK INTER:                  -9.534
REMARK INTRA:                  -0.078
REMARK UNBOUND:                -0.078
REMARK  Name = 
REMARK  2 active torsions:
REMARK  status: ('A' for Active; 'I' for Inactive)
REMARK    1  A    between atoms: C_1  and  C_2
REMARK    2  A    between atoms: C_6  and  N_7
REMARK                            x       y       z     vdW  Elec       q    Type
REMARK                         _______ _______ _______ _____ _____    ______ ____
ROOT
ATOM      1  N   UNL     1      24.427   0.721  53.168  0.00  0.00    +0.000 N 
ATOM      2  C   UNL     1      25.666   0.046  53.117  0.00  0.00    +0.000 A 
ATOM      3  N   UNL     1      25.677  -1.267  52.808  0.00  0.00    +0.000 NA
ATOM      4  C   UNL     1      26.854  -1.895  52.869  0.00  0.00    +0.000 A 
ATOM      5  N   UNL     1      28.020  -1.349  53.223  0.00  0.00    +0.000 NA
ATOM      6  C   UNL     1      28.002  -0.044  53.526  0.00  0.00    +0.000 A 
ATOM      7  C   UNL     1      29.176   0.563  53.930  0.00  0.00    +0.000 A 
ATOM      8  C   UNL     1      29.191   1.919  54.214  0.00  0.00    +0.000 A 
ATOM      9  N   UNL     1      30.360   2.536  54.644  0.00  0.00    +0.000 N 
ATOM     10  N   UNL     1      28.095   2.686  54.154  0.00  0.00    +0.000 NA
ATOM     11  C   UNL     1      26.943   2.075  53.803  0.00  0.00    +0.000 A 
ATOM     12  C   UNL     1      26.837   0.726  53.465  0.00  0.00    +0.000 A 
ATOM     13  H   UNL     1      24.442   1.691  53.003  0.00  0.00    +0.000 HD
ATOM     14  H   UNL     1      31.196   2.019  54.707  0.00  0.00    +0.000 HD
ATOM     15  H   UNL     1      30.353   3.490  54.886  0.00  0.00    +0.000 HD
ENDROOT
BRANCH   1  21
ATOM     16  C   UNL     1      19.635   0.212  52.030  0.00  0.00    +0.000 C 
ATOM     17  C   UNL     1      20.807  -0.131  52.899  0.00  0.00    +0.000 A 
ATOM     18  C   UNL     1      20.676  -1.045  53.950  0.00  0.00    +0.000 A 
ATOM     19  C   UNL     1      21.776  -1.364  54.742  0.00  0.00    +0.000 A 
ATOM     20  C   UNL     1      23.014  -0.780  54.477  0.00  0.00    +0.000 A 
ATOM     21  C   UNL     1      23.172   0.137  53.432  0.00  0.00    +0.000 A 
ATOM     22  C   UNL     1      22.056   0.457  52.647  0.00  0.00    +0.000 A 
ENDBRANCH   1  21
TORSDOF 1
ENDMDL
MODEL 2
REMARK VINA RESULT:    -8.953      3.413      5.619
REMARK INTER + INTRA:          -9.554
REMARK INTER:                  -9.519
REMARK INTRA:                  -0.035
REMARK UNBOUND:                -0.078
REMARK  Name = 
REMARK  2 active torsions:
REMARK  status: ('A' for Active; 'I' for Inactive)
REMARK    1  A    between atoms: C_1  and  C_2
REMARK    2  A    between atoms: C_6  and  N_7
REMARK                            x       y       z     vdW  Elec       q    Type
REMARK                         _______ _______ _______ _____ _____    ______ ____
ROOT
ATOM      1  N   UNL     1      25.843   1.953  51.496  0.00  0.00    +0.000 N 
ATOM      2  C   UNL     1      26.933   1.667  52.346  0.00  0.00    +0.000 A 
ATOM      3  N   UNL     1      27.659   2.692  52.837  0.00  0.00    +0.000 NA
ATOM      4  C   UNL     1      28.743   2.381  53.553  0.00  0.00    +0.000 A 
ATOM      5  N   UNL     1      29.185   1.149  53.816  0.00  0.00    +0.000 NA
ATOM      6  C   UNL     1      28.458   0.135  53.328  0.00  0.00    +0.000 A 
ATOM      7  C   UNL     1      28.888  -1.160  53.544  0.00  0.00    +0.000 A 
ATOM      8  C   UNL     1      28.135  -2.226  53.080  0.00  0.00    +0.000 A 
ATOM      9  N   UNL     1      28.571  -3.532  53.271  0.00  0.00    +0.000 N 
ATOM     10  N   UNL     1      27.004  -2.067  52.384  0.00  0.00    +0.000 NA
ATOM     11  C   UNL     1      26.613  -0.798  52.137  0.00  0.00    +0.000 A 
ATOM     12  C   UNL     1      27.286   0.336  52.593  0.00  0.00    +0.000 A 
ATOM     13  H   UNL     1      25.117   1.289  51.466  0.00  0.00    +0.000 HD
ATOM     14  H   UNL     1      29.398  -3.707  53.776  0.00  0.00    +0.000 HD
ATOM     15  H   UNL     1      28.053  -4.283  52.901  0.00  0.00    +0.000 HD
ENDROOT
BRANCH   1  21
ATOM     16  C   UNL     1      27.825   5.274  48.405  0.00  0.00    +0.000 C 
ATOM     17  C   UNL     1      26.645   4.752  49.168  0.00  0.00    +0.000 A 
ATOM     18  C   UNL     1      25.394   5.370  49.063  0.00  0.00    +0.000 A 
ATOM     19  C   UNL     1      24.303   4.866  49.767  0.00  0.00    +0.000 A 
ATOM     20  C   UNL     1      24.457   3.736  50.568  0.00  0.00    +0.000 A 
ATOM     21  C   UNL     1      25.696   3.098  50.688  0.00  0.00    +0.000 A 
ATOM     22  C   UNL     1      26.789   3.619  49.983  0.00  0.00    +0.000 A 
ENDBRANCH   1  21
TORSDOF 1
ENDMDL
MODEL 3
REMARK VINA RESULT:    -8.616      2.897      4.478
REMARK INTER + INTRA:          -9.198
REMARK INTER:                  -8.887
REMARK INTRA:                  -0.311
REMARK UNBOUND:                -0.078
REMARK  Name = 
REMARK  2 active torsions:
REMARK  status: ('A' for Active; 'I' for Inactive)
REMARK    1  A    between atoms: C_1  and  C_2
REMARK    2  A    between atoms: C_6  and  N_7
REMARK                            x       y       z     vdW  Elec       q    Type
REMARK                         _______ _______ _______ _____ _____    ______ ____
ROOT
ATOM      1  N   UNL     1      25.035   1.690  52.978  0.00  0.00    +0.000 N 
ATOM      2  C   UNL     1      26.391   1.518  53.331  0.00  0.00    +0.000 A 
ATOM      3  N   UNL     1      27.132   2.611  53.611  0.00  0.00    +0.000 NA
ATOM      4  C   UNL     1      28.433   2.419  53.840  0.00  0.00    +0.000 A 
ATOM      5  N   UNL     1      29.075   1.249  53.803  0.00  0.00    +0.000 NA
ATOM      6  C   UNL     1      28.334   0.168  53.526  0.00  0.00    +0.000 A 
ATOM      7  C   UNL     1      28.954  -1.064  53.443  0.00  0.00    +0.000 A 
ATOM      8  C   UNL     1      28.204  -2.201  53.194  0.00  0.00    +0.000 A 
ATOM      9  N   UNL     1      28.821  -3.442  53.085  0.00  0.00    +0.000 N 
ATOM     10  N   UNL     1      26.882  -2.168  52.987  0.00  0.00    +0.000 NA
ATOM     11  C   UNL     1      26.290  -0.955  53.024  0.00  0.00    +0.000 A 
ATOM     12  C   UNL     1      26.956   0.239  53.302  0.00  0.00    +0.000 A 
ATOM     13  H   UNL     1      24.430   0.934  53.157  0.00  0.00    +0.000 HD
ATOM     14  H   UNL     1      29.792  -3.524  53.228  0.00  0.00    +0.000 HD
ATOM     15  H   UNL     1      28.287  -4.240  52.865  0.00  0.00    +0.000 HD
ENDROOT
BRANCH   1  21
ATOM     16  C   UNL     1      24.099   4.409  48.948  0.00  0.00    +0.000 C 
ATOM     17  C   UNL     1      23.994   4.203  50.429  0.00  0.00    +0.000 A 
ATOM     18  C   UNL     1      23.314   5.123  51.233  0.00  0.00    +0.000 A 
ATOM     19  C   UNL     1      23.213   4.913  52.606  0.00  0.00    +0.000 A 
ATOM     20  C   UNL     1      23.782   3.776  53.177  0.00  0.00    +0.000 A 
ATOM     21  C   UNL     1      24.467   2.839  52.395  0.00  0.00    +0.000 A 
ATOM     22  C   UNL     1      24.569   3.066  51.016  0.00  0.00    +0.000 A 
ENDBRANCH   1  21
TORSDOF 1
ENDMDL
MODEL 4
REMARK VINA RESULT:    -8.440      2.131      6.874
REMARK INTER + INTRA:          -9.012
REMARK INTER:                  -8.763
REMARK INTRA:                  -0.249
REMARK UNBOUND:                -0.078
REMARK  Name = 
REMARK  2 active torsions:
REMARK  status: ('A' for Active; 'I' for Inactive)
REMARK    1  A    between atoms: C_1  and  C_2
REMARK    2  A    between atoms: C_6  and  N_7
REMARK                            x       y       z     vdW  Elec       q    Type
REMARK                         _______ _______ _______ _____ _____    ______ ____
ROOT
ATOM      1  N   UNL     1      24.643   0.419  53.103  0.00  0.00    +0.000 N 
ATOM      2  C   UNL     1      23.541  -0.171  53.759  0.00  0.00    +0.000 A 
ATOM      3  N   UNL     1      23.761  -0.888  54.880  0.00  0.00    +0.000 NA
ATOM      4  C   UNL     1      22.711  -1.515  55.416  0.00  0.00    +0.000 A 
ATOM      5  N   UNL     1      21.464  -1.512  54.938  0.00  0.00    +0.000 NA
ATOM      6  C   UNL     1      21.252  -0.796  53.825  0.00  0.00    +0.000 A 
ATOM      7  C   UNL     1      19.987  -0.784  53.270  0.00  0.00    +0.000 A 
ATOM      8  C   UNL     1      19.733  -0.023  52.141  0.00  0.00    +0.000 A 
ATOM      9  N   UNL     1      18.470  -0.023  51.560  0.00  0.00    +0.000 N 
ATOM     10  N   UNL     1      20.679   0.692  51.520  0.00  0.00    +0.000 NA
ATOM     11  C   UNL     1      21.923   0.640  52.042  0.00  0.00    +0.000 A 
ATOM     12  C   UNL     1      22.265  -0.069  53.194  0.00  0.00    +0.000 A 
ATOM     13  H   UNL     1      24.461   1.220  52.560  0.00  0.00    +0.000 HD
ATOM     14  H   UNL     1      17.736  -0.532  51.975  0.00  0.00    +0.000 HD
ATOM     15  H   UNL     1      18.308   0.487  50.734  0.00  0.00    +0.000 HD
ENDROOT
BRANCH   1  21
ATOM     16  C   UNL     1      29.359   1.196  54.391  0.00  0.00    +0.000 C 
ATOM     17  C   UNL     1      28.310   0.326  53.769  0.00  0.00    +0.000 A 
ATOM     18  C   UNL     1      28.634  -0.938  53.265  0.00  0.00    +0.000 A 
ATOM     19  C   UNL     1      27.646  -1.742  52.701  0.00  0.00    +0.000 A 
ATOM     20  C   UNL     1      26.328  -1.289  52.653  0.00  0.00    +0.000 A 
ATOM     21  C   UNL     1      25.977  -0.030  53.151  0.00  0.00    +0.000 A 
ATOM     22  C   UNL     1      26.981   0.773  53.708  0.00  0.00    +0.000 A 
ENDBRANCH   1  21
TORSDOF 1
ENDMDL
MODEL 5
REMARK VINA RESULT:    -8.201      1.828      3.482
REMARK INTER + INTRA:          -8.758
REMARK INTER:                  -8.601
REMARK INTRA:                  -0.158
REMARK UNBOUND:                -0.078
REMARK  Name = 
REMARK  2 active torsions:
REMARK  status: ('A' for Active; 'I' for Inactive)
REMARK    1  A    between atoms: C_1  and  C_2
REMARK    2  A    between atoms: C_6  and  N_7
REMARK                            x       y       z     vdW  Elec       q    Type
REMARK                         _______ _______ _______ _____ _____    ______ ____
ROOT
ATOM      1  N   UNL     1      22.701   0.064  52.711  0.00  0.00    +0.000 N 
ATOM      2  C   UNL     1      23.716   0.982  53.057  0.00  0.00    +0.000 A 
ATOM      3  N   UNL     1      23.440   2.302  53.008  0.00  0.00    +0.000 NA
ATOM      4  C   UNL     1      24.451   3.142  53.241  0.00  0.00    +0.000 A 
ATOM      5  N   UNL     1      25.715   2.800  53.504  0.00  0.00    +0.000 NA
ATOM      6  C   UNL     1      25.982   1.488  53.554  0.00  0.00    +0.000 A 
ATOM      7  C   UNL     1      27.280   1.078  53.790  0.00  0.00    +0.000 A 
ATOM      8  C   UNL     1      27.574  -0.272  53.881  0.00  0.00    +0.000 A 
ATOM      9  N   UNL     1      28.881  -0.696  54.095  0.00  0.00    +0.000 N 
ATOM     10  N   UNL     1      26.653  -1.229  53.712  0.00  0.00    +0.000 NA
ATOM     11  C   UNL     1      25.396  -0.822  53.436  0.00  0.00    +0.000 A 
ATOM     12  C   UNL     1      24.998   0.513  53.360  0.00  0.00    +0.000 A 
ATOM     13  H   UNL     1      22.762  -0.836  53.107  0.00  0.00    +0.000 HD
ATOM     14  H   UNL     1      29.598  -0.034  54.226  0.00  0.00    +0.000 HD
ATOM     15  H   UNL     1      29.089  -1.658  54.116  0.00  0.00    +0.000 HD
ENDROOT
BRANCH   1  21
ATOM     16  C   UNL     1      17.816   0.029  51.907  0.00  0.00    +0.000 C 
ATOM     17  C   UNL     1      19.209   0.302  51.427  0.00  0.00    +0.000 A 
ATOM     18  C   UNL     1      19.436   0.829  50.151  0.00  0.00    +0.000 A 
ATOM     19  C   UNL     1      20.736   1.091  49.723  0.00  0.00    +0.000 A 
ATOM     20  C   UNL     1      21.811   0.838  50.574  0.00  0.00    +0.000 A 
ATOM     21  C   UNL     1      21.611   0.313  51.855  0.00  0.00    +0.000 A 
ATOM     22  C   UNL     1      20.300   0.045  52.272  0.00  0.00    +0.000 A 
ENDBRANCH   1  21
TORSDOF 1
ENDMDL
MODEL 6
REMARK VINA RESULT:    -8.172      2.108      6.595
REMARK INTER + INTRA:          -8.727
REMARK INTER:                  -8.665
REMARK INTRA:                  -0.063
REMARK UNBOUND:                -0.078
REMARK  Name = 
REMARK  2 active torsions:
REMARK  status: ('A' for Active; 'I' for Inactive)
REMARK    1  A    between atoms: C_1  and  C_2
REMARK    2  A    between atoms: C_6  and  N_7
REMARK                            x       y       z     vdW  Elec       q    Type
REMARK                         _______ _______ _______ _____ _____    ______ ____
ROOT
ATOM      1  N   UNL     1      25.731   1.396  52.797  0.00  0.00    +0.000 N 
ATOM      2  C   UNL     1      24.502   0.738  53.020  0.00  0.00    +0.000 A 
ATOM      3  N   UNL     1      24.405  -0.121  54.055  0.00  0.00    +0.000 NA
ATOM      4  C   UNL     1      23.262  -0.801  54.174  0.00  0.00    +0.000 A 
ATOM      5  N   UNL     1      22.210  -0.722  53.356  0.00  0.00    +0.000 NA
ATOM      6  C   UNL     1      22.312   0.136  52.331  0.00  0.00    +0.000 A 
ATOM      7  C   UNL     1      21.265   0.233  51.435  0.00  0.00    +0.000 A 
ATOM      8  C   UNL     1      21.332   1.138  50.389  0.00  0.00    +0.000 A 
ATOM      9  N   UNL     1      20.294   1.228  49.468  0.00  0.00    +0.000 N 
ATOM     10  N   UNL     1      22.397   1.918  50.169  0.00  0.00    +0.000 NA
ATOM     11  C   UNL     1      23.435   1.784  51.023  0.00  0.00    +0.000 A 
ATOM     12  C   UNL     1      23.445   0.927  52.124  0.00  0.00    +0.000 A 
ATOM     13  H   UNL     1      25.694   2.263  52.332  0.00  0.00    +0.000 HD
ATOM     14  H   UNL     1      19.485   0.678  49.581  0.00  0.00    +0.000 HD
ATOM     15  H   UNL     1      20.367   1.843  48.702  0.00  0.00    +0.000 HD
ENDROOT
BRANCH   1  21
ATOM     16  C   UNL     1      28.993  -2.315  53.120  0.00  0.00    +0.000 C 
ATOM     17  C   UNL     1      28.631  -0.880  53.355  0.00  0.00    +0.000 A 
ATOM     18  C   UNL     1      29.554   0.008  53.920  0.00  0.00    +0.000 A 
ATOM     19  C   UNL     1      29.209   1.342  54.121  0.00  0.00    +0.000 A 
ATOM     20  C   UNL     1      27.945   1.796  53.746  0.00  0.00    +0.000 A 
ATOM     21  C   UNL     1      27.005   0.930  53.178  0.00  0.00    +0.000 A 
ATOM     22  C   UNL     1      27.360  -0.413  52.988  0.00  0.00    +0.000 A 
ENDBRANCH   1  21
TORSDOF 1
ENDMDL
MODEL 7
REMARK VINA RESULT:    -7.974      3.772      6.693
REMARK INTER + INTRA:          -8.518
REMARK INTER:                  -8.246
REMARK INTRA:                  -0.272
REMARK UNBOUND:                -0.078
REMARK  Name = 
REMARK  2 active torsions:
REMARK  status: ('A' for Active; 'I' for Inactive)
REMARK    1  A    between atoms: C_1  and  C_2
REMARK    2  A    between atoms: C_6  and  N_7
REMARK                            x       y       z     vdW  Elec       q    Type
REMARK                         _______ _______ _______ _____ _____    ______ ____
ROOT
ATOM      1  N   UNL     1      25.862   1.881  52.420  0.00  0.00    +0.000 N 
ATOM      2  C   UNL     1      25.785   2.825  51.374  0.00  0.00    +0.000 A 
ATOM      3  N   UNL     1      26.764   2.846  50.446  0.00  0.00    +0.000 NA
ATOM      4  C   UNL     1      26.712   3.818  49.531  0.00  0.00    +0.000 A 
ATOM      5  N   UNL     1      25.789   4.780  49.456  0.00  0.00    +0.000 NA
ATOM      6  C   UNL     1      24.819   4.752  50.380  0.00  0.00    +0.000 A 
ATOM      7  C   UNL     1      23.857   5.743  50.368  0.00  0.00    +0.000 A 
ATOM      8  C   UNL     1      22.823   5.715  51.289  0.00  0.00    +0.000 A 
ATOM      9  N   UNL     1      21.863   6.721  51.301  0.00  0.00    +0.000 N 
ATOM     10  N   UNL     1      22.721   4.778  52.238  0.00  0.00    +0.000 NA
ATOM     11  C   UNL     1      23.690   3.838  52.272  0.00  0.00    +0.000 A 
ATOM     12  C   UNL     1      24.749   3.764  51.366  0.00  0.00    +0.000 A 
ATOM     13  H   UNL     1      25.013   1.607  52.836  0.00  0.00    +0.000 HD
ATOM     14  H   UNL     1      21.890   7.437  50.625  0.00  0.00    +0.000 HD
ATOM     15  H   UNL     1      21.155   6.718  51.986  0.00  0.00    +0.000 HD
ENDROOT
BRANCH   1  21
ATOM     16  C   UNL     1      28.702  -2.127  53.039  0.00  0.00    +0.000 C 
ATOM     17  C   UNL     1      28.457  -0.664  53.251  0.00  0.00    +0.000 A 
ATOM     18  C   UNL     1      29.397   0.130  53.917  0.00  0.00    +0.000 A 
ATOM     19  C   UNL     1      29.162   1.491  54.096  0.00  0.00    +0.000 A 
ATOM     20  C   UNL     1      27.994   2.065  53.597  0.00  0.00    +0.000 A 
ATOM     21  C   UNL     1      27.039   1.294  52.925  0.00  0.00    +0.000 A 
ATOM     22  C   UNL     1      27.281  -0.077  52.760  0.00  0.00    +0.000 A 
ENDBRANCH   1  21
TORSDOF 1
ENDMDL
MODEL 8
REMARK VINA RESULT:    -7.879      2.037      6.979
REMARK INTER + INTRA:          -8.417
REMARK INTER:                  -8.729
REMARK INTRA:                   0.312
REMARK UNBOUND:                -0.078
REMARK  Name = 
REMARK  2 active torsions:
REMARK  status: ('A' for Active; 'I' for Inactive)
REMARK    1  A    between atoms: C_1  and  C_2
REMARK    2  A    between atoms: C_6  and  N_7
REMARK                            x       y       z     vdW  Elec       q    Type
REMARK                         _______ _______ _______ _____ _____    ______ ____
ROOT
ATOM      1  N   UNL     1      25.305  -0.157  53.008  0.00  0.00    +0.000 N 
ATOM      2  C   UNL     1      24.198   0.630  52.625  0.00  0.00    +0.000 A 
ATOM      3  N   UNL     1      24.421   1.828  52.046  0.00  0.00    +0.000 NA
ATOM      4  C   UNL     1      23.354   2.588  51.791  0.00  0.00    +0.000 A 
ATOM      5  N   UNL     1      22.084   2.281  52.069  0.00  0.00    +0.000 NA
ATOM      6  C   UNL     1      21.868   1.089  52.643  0.00  0.00    +0.000 A 
ATOM      7  C   UNL     1      20.577   0.735  52.981  0.00  0.00    +0.000 A 
ATOM      8  C   UNL     1      20.324  -0.506  53.542  0.00  0.00    +0.000 A 
ATOM      9  N   UNL     1      19.031  -0.863  53.909  0.00  0.00    +0.000 N 
ATOM     10  N   UNL     1      21.290  -1.390  53.815  0.00  0.00    +0.000 NA
ATOM     11  C   UNL     1      22.555  -1.019  53.523  0.00  0.00    +0.000 A 
ATOM     12  C   UNL     1      22.903   0.193  52.926  0.00  0.00    +0.000 A 
ATOM     13  H   UNL     1      25.165  -1.130  53.053  0.00  0.00    +0.000 HD
ATOM     14  H   UNL     1      18.281  -0.250  53.731  0.00  0.00    +0.000 HD
ATOM     15  H   UNL     1      18.864  -1.729  54.346  0.00  0.00    +0.000 HD
ENDROOT
BRANCH   1  21
ATOM     16  C   UNL     1      30.111  -1.051  53.794  0.00  0.00    +0.000 C 
ATOM     17  C   UNL     1      28.962  -0.091  53.730  0.00  0.00    +0.000 A 
ATOM     18  C   UNL     1      29.158   1.276  53.956  0.00  0.00    +0.000 A 
ATOM     19  C   UNL     1      28.084   2.159  53.880  0.00  0.00    +0.000 A 
ATOM     20  C   UNL     1      26.814   1.681  53.564  0.00  0.00    +0.000 A 
ATOM     21  C   UNL     1      26.591   0.319  53.331  0.00  0.00    +0.000 A 
ATOM     22  C   UNL     1      27.677  -0.561  53.419  0.00  0.00    +0.000 A 
ENDBRANCH   1  21
TORSDOF 1
ENDMDL
MODEL 9
REMARK VINA RESULT:    -7.672      3.854      6.588
REMARK INTER + INTRA:          -8.199
REMARK INTER:                  -8.232
REMARK INTRA:                   0.033
REMARK UNBOUND:                -0.078
REMARK  Name = 
REMARK  2 active torsions:
REMARK  status: ('A' for Active; 'I' for Inactive)
REMARK    1  A    between atoms: C_1  and  C_2
REMARK    2  A    between atoms: C_6  and  N_7
REMARK                            x       y       z     vdW  Elec       q    Type
REMARK                         _______ _______ _______ _____ _____    ______ ____
ROOT
ATOM      1  N   UNL     1      24.505   3.511  51.402  0.00  0.00    +0.000 N 
ATOM      2  C   UNL     1      24.944   2.544  52.331  0.00  0.00    +0.000 A 
ATOM      3  N   UNL     1      26.219   2.597  52.770  0.00  0.00    +0.000 NA
ATOM      4  C   UNL     1      26.628   1.608  53.568  0.00  0.00    +0.000 A 
ATOM      5  N   UNL     1      25.898   0.560  53.961  0.00  0.00    +0.000 NA
ATOM      6  C   UNL     1      24.633   0.514  53.523  0.00  0.00    +0.000 A 
ATOM      7  C   UNL     1      23.844  -0.564  53.873  0.00  0.00    +0.000 A 
ATOM      8  C   UNL     1      22.522  -0.617  53.463  0.00  0.00    +0.000 A 
ATOM      9  N   UNL     1      21.726  -1.709  53.790  0.00  0.00    +0.000 N 
ATOM     10  N   UNL     1      21.962   0.325  52.695  0.00  0.00    +0.000 NA
ATOM     11  C   UNL     1      22.752   1.354  52.319  0.00  0.00    +0.000 A 
ATOM     12  C   UNL     1      24.082   1.510  52.711  0.00  0.00    +0.000 A 
ATOM     13  H   UNL     1      23.541   3.711  51.390  0.00  0.00    +0.000 HD
ATOM     14  H   UNL     1      22.087  -2.432  54.352  0.00  0.00    +0.000 HD
ATOM     15  H   UNL     1      20.800  -1.760  53.459  0.00  0.00    +0.000 HD
ENDROOT
BRANCH   1  21
ATOM     16  C   UNL     1      25.551   7.705  48.988  0.00  0.00    +0.000 C 
ATOM     17  C   UNL     1      25.853   6.268  49.284  0.00  0.00    +0.000 A 
ATOM     18  C   UNL     1      26.947   5.629  48.690  0.00  0.00    +0.000 A 
ATOM     19  C   UNL     1      27.223   4.296  48.984  0.00  0.00    +0.000 A 
ATOM     20  C   UNL     1      26.415   3.601  49.882  0.00  0.00    +0.000 A 
ATOM     21  C   UNL     1      25.316   4.217  50.491  0.00  0.00    +0.000 A 
ATOM     22  C   UNL     1      25.042   5.556  50.181  0.00  0.00    +0.000 A 
ENDBRANCH   1  21
TORSDOF 1
ENDMDL
