MODEL 1
REMARK VINA RESULT:    -9.319      0.000      0.000
REMARK INTER + INTRA:         -14.228
REMARK INTER:                 -12.588
REMARK INTRA:                  -1.640
REMARK UNBOUND:                -1.640
REMARK  Name = 
REMARK  7 active torsions:
REMARK  status: ('A' for Active; 'I' for Inactive)
REMARK    1  A    between atoms: C_1  and  O_2
REMARK    2  A    between atoms: O_2  and  C_3
REMARK    3  A    between atoms: C_9  and  N_10
REMARK    4  A    between atoms: N_10  and  C_11
REMARK    5  A    between atoms: C_21  and  C_22
REMARK    6  A    between atoms: C_22  and  N_23
REMARK    7  A    between atoms: C_27  and  C_28
REMARK                            x       y       z     vdW  Elec       q    Type
REMARK                         _______ _______ _______ _____ _____    ______ ____
ROOT
ATOM      1  C   UNL     1      20.570   1.942  52.577  0.00  0.00    +0.000 A 
ATOM      2  C   UNL     1      20.642   0.978  53.595  0.00  0.00    +0.000 A 
ATOM      3  C   UNL     1      21.797   0.268  53.863  0.00  0.00    +0.000 A 
ATOM      4  N   UNL     1      21.813  -0.542  54.927  0.00  0.00    +0.000 NA
ATOM      5  C   UNL     1      22.963  -1.173  55.180  0.00  0.00    +0.000 A 
ATOM      6  N   UNL     1      24.079  -1.092  54.455  0.00  0.00    +0.000 NA
ATOM      7  C   UNL     1      24.045  -0.286  53.377  0.00  0.00    +0.000 A 
ATOM      8  C   UNL     1      22.902   0.452  53.030  0.00  0.00    +0.000 A 
ATOM      9  C   UNL     1      22.809   1.357  51.947  0.00  0.00    +0.000 A 
ATOM     10  C   UNL     1      21.668   2.144  51.723  0.00  0.00    +0.000 A 
ENDROOT
BRANCH   1  12
ATOM     11  C   UNL     1      18.414   2.136  51.617  0.00  0.00    +0.000 C 
ATOM     12  O   UNL     1      19.460   2.727  52.389  0.00  0.00    +0.000 OA
ENDBRANCH   1  12
BRANCH   7  13
ATOM     13  N   UNL     1      25.219  -0.168  52.591  0.00  0.00    +0.000 N 
ATOM     14  H   UNL     1      25.154  -0.439  51.648  0.00  0.00    +0.000 HD
BRANCH  13  15
ATOM     15  C   UNL     1      26.472   0.304  53.037  0.00  0.00    +0.000 A 
ATOM     16  C   UNL     1      26.668   1.647  53.396  0.00  0.00    +0.000 A 
ATOM     17  C   UNL     1      27.898   2.094  53.877  0.00  0.00    +0.000 A 
ATOM     18  C   UNL     1      28.954   1.200  54.031  0.00  0.00    +0.000 A 
ATOM     19  C   UNL     1      28.768  -0.144  53.712  0.00  0.00    +0.000 A 
ATOM     20 CL   UNL     1      30.079  -1.244  53.924  0.00  0.00    +0.000 Cl
ATOM     21  C   UNL     1      27.536  -0.589  53.233  0.00  0.00    +0.000 A 
ATOM     22  F   UNL     1      27.356  -1.887  52.926  0.00  0.00    +0.000 F 
ENDBRANCH  13  15
ENDBRANCH   7  13
BRANCH  10  23
ATOM     23  C   UNL     1      21.756   3.316  50.760  0.00  0.00    +0.000 C 
BRANCH  23  24
ATOM     24  N   UNL     1      21.275   4.651  51.109  0.00  0.00    +0.000 N 
ATOM     25  C   UNL     1      20.364   5.242  50.129  0.00  0.00    +0.000 C 
ATOM     26  C   UNL     1      21.202   6.274  49.404  0.00  0.00    +0.000 C 
ATOM     27  C   UNL     1      22.113   6.825  50.486  0.00  0.00    +0.000 C 
ATOM     28  C   UNL     1      22.165   5.741  51.566  0.00  0.00    +0.000 C 
ATOM     29  H   UNL     1      20.834   4.326  51.969  0.00  0.00    +0.000 HD
BRANCH  28  30
ATOM     30  C   UNL     1      23.583   5.369  52.003  0.00  0.00    +0.000 C 
ATOM     31  N   UNL     1      23.758   5.114  53.335  0.00  0.00    +0.000 N 
ATOM     32  O   UNL     1      24.558   5.341  51.257  0.00  0.00    +0.000 OA
ATOM     33  H   UNL     1      22.985   5.134  53.945  0.00  0.00    +0.000 HD
ATOM     34  H   UNL     1      24.656   4.911  53.683  0.00  0.00    +0.000 HD
ENDBRANCH  28  30
ENDBRANCH  23  24
ENDBRANCH  10  23
TORSDOF 6
ENDMDL
MODEL 2
REMARK VINA RESULT:    -9.099      3.839      6.701
REMARK INTER + INTRA:         -13.931
REMARK INTER:                 -12.470
REMARK INTRA:                  -1.461
REMARK UNBOUND:                -1.640
REMARK  Name = 
REMARK  7 active torsions:
REMARK  status: ('A' for Active; 'I' for Inactive)
REMARK    1  A    between atoms: C_1  and  O_2
REMARK    2  A    between atoms: O_2  and  C_3
REMARK    3  A    between atoms: C_9  and  N_10
REMARK    4  A    between atoms: N_10  and  C_11
REMARK    5  A    between atoms: C_21  and  C_22
REMARK    6  A    between atoms: C_22  and  N_23
REMARK    7  A    between atoms: C_27  and  C_28
REMARK                            x       y       z     vdW  Elec       q    Type
REMARK                         _______ _______ _______ _____ _____    ______ ____
ROOT
ATOM      1  C   UNL     1      22.778   0.074  52.870  0.00  0.00    +0.000 A 
ATOM      2  C   UNL     1      21.725   0.750  52.232  0.00  0.00    +0.000 A 
ATOM      3  C   UNL     1      21.861   2.033  51.738  0.00  0.00    +0.000 A 
ATOM      4  N   UNL     1      20.847   2.555  51.038  0.00  0.00    +0.000 NA
ATOM      5  C   UNL     1      21.036   3.779  50.535  0.00  0.00    +0.000 A 
ATOM      6  N   UNL     1      22.124   4.533  50.693  0.00  0.00    +0.000 NA
ATOM      7  C   UNL     1      23.131   4.003  51.413  0.00  0.00    +0.000 A 
ATOM      8  C   UNL     1      23.059   2.713  51.963  0.00  0.00    +0.000 A 
ATOM      9  C   UNL     1      24.094   2.071  52.683  0.00  0.00    +0.000 A 
ATOM     10  C   UNL     1      23.993   0.737  53.112  0.00  0.00    +0.000 A 
ENDROOT
BRANCH   1  12
ATOM     11  C   UNL     1      21.894  -1.476  54.426  0.00  0.00    +0.000 C 
ATOM     12  O   UNL     1      22.677  -1.239  53.256  0.00  0.00    +0.000 OA
ENDBRANCH   1  12
BRANCH   7  13
ATOM     13  N   UNL     1      24.307   4.774  51.589  0.00  0.00    +0.000 N 
ATOM     14  H   UNL     1      24.448   5.178  52.475  0.00  0.00    +0.000 HD
BRANCH  13  15
ATOM     15  C   UNL     1      25.296   5.014  50.611  0.00  0.00    +0.000 A 
ATOM     16  C   UNL     1      26.045   3.969  50.049  0.00  0.00    +0.000 A 
ATOM     17  C   UNL     1      26.989   4.212  49.052  0.00  0.00    +0.000 A 
ATOM     18  C   UNL     1      27.188   5.506  48.580  0.00  0.00    +0.000 A 
ATOM     19  C   UNL     1      26.430   6.552  49.102  0.00  0.00    +0.000 A 
ATOM     20 CL   UNL     1      26.673   8.148  48.495  0.00  0.00    +0.000 Cl
ATOM     21  C   UNL     1      25.484   6.306  50.098  0.00  0.00    +0.000 A 
ATOM     22  F   UNL     1      24.750   7.315  50.601  0.00  0.00    +0.000 F 
ENDBRANCH  13  15
ENDBRANCH   7  13
BRANCH  10  23
ATOM     23  C   UNL     1      25.246   0.015  53.578  0.00  0.00    +0.000 C 
BRANCH  23  24
ATOM     24  N   UNL     1      26.387  -0.217  52.695  0.00  0.00    +0.000 N 
ATOM     25  C   UNL     1      26.468  -1.573  52.154  0.00  0.00    +0.000 C 
ATOM     26  C   UNL     1      27.578  -2.234  52.944  0.00  0.00    +0.000 C 
ATOM     27  C   UNL     1      28.575  -1.112  53.174  0.00  0.00    +0.000 C 
ATOM     28  C   UNL     1      27.771   0.183  53.034  0.00  0.00    +0.000 C 
ATOM     29  H   UNL     1      26.087   0.497  52.032  0.00  0.00    +0.000 HD
BRANCH  28  30
ATOM     30  C   UNL     1      27.967   1.163  54.192  0.00  0.00    +0.000 C 
ATOM     31  N   UNL     1      27.848   2.490  53.888  0.00  0.00    +0.000 N 
ATOM     32  O   UNL     1      28.270   0.837  55.337  0.00  0.00    +0.000 OA
ATOM     33  H   UNL     1      27.606   2.765  52.974  0.00  0.00    +0.000 HD
ATOM     34  H   UNL     1      28.006   3.170  54.582  0.00  0.00    +0.000 HD
ENDBRANCH  28  30
ENDBRANCH  23  24
ENDBRANCH  10  23
TORSDOF 6
ENDMDL
MODEL 3
REMARK VINA RESULT:    -9.031      1.508      1.976
REMARK INTER + INTRA:         -13.839
REMARK INTER:                 -12.170
REMARK INTRA:                  -1.669
REMARK UNBOUND:                -1.640
REMARK  Name = 
REMARK  7 active torsions:
REMARK  status: ('A' for Active; 'I' for Inactive)
REMARK    1  A    between atoms: C_1  and  O_2
REMARK    2  A    between atoms: O_2  and  C_3
REMARK    3  A    between atoms: C_9  and  N_10
REMARK    4  A    between atoms: N_10  and  C_11
REMARK    5  A    between atoms: C_21  and  C_22
REMARK    6  A    between atoms: C_22  and  N_23
REMARK    7  A    between atoms: C_27  and  C_28
REMARK                            x       y       z     vdW  Elec       q    Type
REMARK                         _______ _______ _______ _____ _____    ______ ____
ROOT
ATOM      1  C   UNL     1      20.494   2.186  52.525  0.00  0.00    +0.000 A 
ATOM      2  C   UNL     1      20.606   1.152  53.468  0.00  0.00    +0.000 A 
ATOM      3  C   UNL     1      21.791   0.475  53.688  0.00  0.00    +0.000 A 
ATOM      4  N   UNL     1      21.840  -0.411  54.689  0.00  0.00    +0.000 NA
ATOM      5  C   UNL     1      23.017  -1.009  54.900  0.00  0.00    +0.000 A 
ATOM      6  N   UNL     1      24.130  -0.825  54.189  0.00  0.00    +0.000 NA
ATOM      7  C   UNL     1      24.063   0.058  53.173  0.00  0.00    +0.000 A 
ATOM      8  C   UNL     1      22.889   0.769  52.877  0.00  0.00    +0.000 A 
ATOM      9  C   UNL     1      22.758   1.748  51.864  0.00  0.00    +0.000 A 
ATOM     10  C   UNL     1      21.584   2.500  51.694  0.00  0.00    +0.000 A 
ENDROOT
BRANCH   1  12
ATOM     11  C   UNL     1      18.307   2.326  51.629  0.00  0.00    +0.000 C 
ATOM     12  O   UNL     1      19.351   2.933  52.391  0.00  0.00    +0.000 OA
ENDBRANCH   1  12
BRANCH   7  13
ATOM     13  N   UNL     1      25.231   0.286  52.405  0.00  0.00    +0.000 N 
ATOM     14  H   UNL     1      25.158   0.157  51.432  0.00  0.00    +0.000 HD
BRANCH  13  15
ATOM     15  C   UNL     1      26.490   0.682  52.906  0.00  0.00    +0.000 A 
ATOM     16  C   UNL     1      26.734   1.998  53.327  0.00  0.00    +0.000 A 
ATOM     17  C   UNL     1      27.967   2.369  53.861  0.00  0.00    +0.000 A 
ATOM     18  C   UNL     1      28.977   1.422  54.007  0.00  0.00    +0.000 A 
ATOM     19  C   UNL     1      28.742   0.102  53.626  0.00  0.00    +0.000 A 
ATOM     20 CL   UNL     1      29.996  -1.064  53.830  0.00  0.00    +0.000 Cl
ATOM     21  C   UNL     1      27.507  -0.267  53.094  0.00  0.00    +0.000 A 
ATOM     22  F   UNL     1      27.278  -1.541  52.728  0.00  0.00    +0.000 F 
ENDBRANCH  13  15
ENDBRANCH   7  13
BRANCH  10  23
ATOM     23  C   UNL     1      21.622   3.743  50.822  0.00  0.00    +0.000 C 
BRANCH  23  24
ATOM     24  N   UNL     1      21.531   3.678  49.365  0.00  0.00    +0.000 N 
ATOM     25  C   UNL     1      20.623   2.648  48.860  0.00  0.00    +0.000 C 
ATOM     26  C   UNL     1      21.536   1.550  48.357  0.00  0.00    +0.000 C 
ATOM     27  C   UNL     1      22.725   2.301  47.786  0.00  0.00    +0.000 C 
ATOM     28  C   UNL     1      22.715   3.667  48.477  0.00  0.00    +0.000 C 
ATOM     29  H   UNL     1      21.185   4.634  49.291  0.00  0.00    +0.000 HD
BRANCH  28  30
ATOM     30  C   UNL     1      24.062   4.067  49.079  0.00  0.00    +0.000 C 
ATOM     31  N   UNL     1      24.348   5.404  49.085  0.00  0.00    +0.000 N 
ATOM     32  O   UNL     1      24.903   3.275  49.496  0.00  0.00    +0.000 OA
ATOM     33  H   UNL     1      23.684   6.051  48.754  0.00  0.00    +0.000 HD
ATOM     34  H   UNL     1      25.218   5.720  49.421  0.00  0.00    +0.000 HD
ENDBRANCH  28  30
ENDBRANCH  23  24
ENDBRANCH  10  23
TORSDOF 6
ENDMDL
MODEL 4
REMARK VINA RESULT:    -8.534      2.612      3.545
REMARK INTER + INTRA:         -13.168
REMARK INTER:                 -11.890
REMARK INTRA:                  -1.278
REMARK UNBOUND:                -1.640
REMARK  Name = 
REMARK  7 active torsions:
REMARK  status: ('A' for Active; 'I' for Inactive)
REMARK    1  A    between atoms: C_1  and  O_2
REMARK    2  A    between atoms: O_2  and  C_3
REMARK    3  A    between atoms: C_9  and  N_10
REMARK    4  A    between atoms: N_10  and  C_11
REMARK    5  A    between atoms: C_21  and  C_22
REMARK    6  A    between atoms: C_22  and  N_23
REMARK    7  A    between atoms: C_27  and  C_28
REMARK                            x       y       z     vdW  Elec       q    Type
REMARK                         _______ _______ _______ _____ _____    ______ ____
ROOT
ATOM      1  C   UNL     1      23.107   3.159  49.157  0.00  0.00    +0.000 A 
ATOM      2  C   UNL     1      22.181   2.137  49.420  0.00  0.00    +0.000 A 
ATOM      3  C   UNL     1      22.218   1.384  50.578  0.00  0.00    +0.000 A 
ATOM      4  N   UNL     1      21.226   0.515  50.803  0.00  0.00    +0.000 NA
ATOM      5  C   UNL     1      21.273  -0.158  51.957  0.00  0.00    +0.000 A 
ATOM      6  N   UNL     1      22.228  -0.066  52.882  0.00  0.00    +0.000 NA
ATOM      7  C   UNL     1      23.230   0.800  52.636  0.00  0.00    +0.000 A 
ATOM      8  C   UNL     1      23.270   1.586  51.473  0.00  0.00    +0.000 A 
ATOM      9  C   UNL     1      24.259   2.553  51.172  0.00  0.00    +0.000 A 
ATOM     10  C   UNL     1      24.178   3.380  50.040  0.00  0.00    +0.000 A 
ENDROOT
BRANCH   1  12
ATOM     11  C   UNL     1      21.821   4.787  48.016  0.00  0.00    +0.000 C 
ATOM     12  O   UNL     1      22.999   3.981  48.063  0.00  0.00    +0.000 OA
ENDBRANCH   1  12
BRANCH   7  13
ATOM     13  N   UNL     1      24.255   0.932  53.605  0.00  0.00    +0.000 N 
ATOM     14  H   UNL     1      24.028   1.415  54.432  0.00  0.00    +0.000 HD
BRANCH  13  15
ATOM     15  C   UNL     1      25.570   0.432  53.496  0.00  0.00    +0.000 A 
ATOM     16  C   UNL     1      25.831  -0.852  52.994  0.00  0.00    +0.000 A 
ATOM     17  C   UNL     1      27.136  -1.320  52.848  0.00  0.00    +0.000 A 
ATOM     18  C   UNL     1      28.212  -0.501  53.181  0.00  0.00    +0.000 A 
ATOM     19  C   UNL     1      27.974   0.790  53.649  0.00  0.00    +0.000 A 
ATOM     20 CL   UNL     1      29.315   1.800  54.041  0.00  0.00    +0.000 Cl
ATOM     21  C   UNL     1      26.667   1.256  53.792  0.00  0.00    +0.000 A 
ATOM     22  F   UNL     1      26.436   2.503  54.242  0.00  0.00    +0.000 F 
ENDBRANCH  13  15
ENDBRANCH   7  13
BRANCH  10  23
ATOM     23  C   UNL     1      25.077   4.601  49.953  0.00  0.00    +0.000 C 
BRANCH  23  24
ATOM     24  N   UNL     1      24.932   5.744  50.853  0.00  0.00    +0.000 N 
ATOM     25  C   UNL     1      23.629   5.835  51.512  0.00  0.00    +0.000 C 
ATOM     26  C   UNL     1      22.911   6.951  50.783  0.00  0.00    +0.000 C 
ATOM     27  C   UNL     1      24.016   7.939  50.457  0.00  0.00    +0.000 C 
ATOM     28  C   UNL     1      25.312   7.124  50.481  0.00  0.00    +0.000 C 
ATOM     29  H   UNL     1      25.699   5.437  51.452  0.00  0.00    +0.000 HD
BRANCH  28  30
ATOM     30  C   UNL     1      26.188   7.314  49.242  0.00  0.00    +0.000 C 
ATOM     31  N   UNL     1      27.536   7.378  49.459  0.00  0.00    +0.000 N 
ATOM     32  O   UNL     1      25.759   7.463  48.101  0.00  0.00    +0.000 OA
ATOM     33  H   UNL     1      27.895   7.261  50.368  0.00  0.00    +0.000 HD
ATOM     34  H   UNL     1      28.148   7.542  48.705  0.00  0.00    +0.000 HD
ENDBRANCH  28  30
ENDBRANCH  23  24
ENDBRANCH  10  23
TORSDOF 6
ENDMDL
MODEL 5
REMARK VINA RESULT:    -8.515      2.478      4.760
REMARK INTER + INTRA:         -13.142
REMARK INTER:                 -11.621
REMARK INTRA:                  -1.520
REMARK UNBOUND:                -1.640
REMARK  Name = 
REMARK  7 active torsions:
REMARK  status: ('A' for Active; 'I' for Inactive)
REMARK    1  A    between atoms: C_1  and  O_2
REMARK    2  A    between atoms: O_2  and  C_3
REMARK    3  A    between atoms: C_9  and  N_10
REMARK    4  A    between atoms: N_10  and  C_11
REMARK    5  A    between atoms: C_21  and  C_22
REMARK    6  A    between atoms: C_22  and  N_23
REMARK    7  A    between atoms: C_27  and  C_28
REMARK                            x       y       z     vdW  Elec       q    Type
REMARK                         _______ _______ _______ _____ _____    ______ ____
ROOT
ATOM      1  C   UNL     1      22.055   3.417  50.018  0.00  0.00    +0.000 A 
ATOM      2  C   UNL     1      23.198   3.852  49.329  0.00  0.00    +0.000 A 
ATOM      3  C   UNL     1      24.476   3.668  49.823  0.00  0.00    +0.000 A 
ATOM      4  N   UNL     1      25.512   4.003  49.046  0.00  0.00    +0.000 NA
ATOM      5  C   UNL     1      26.731   3.764  49.540  0.00  0.00    +0.000 A 
ATOM      6  N   UNL     1      27.005   3.254  50.741  0.00  0.00    +0.000 NA
ATOM      7  C   UNL     1      25.953   2.936  51.520  0.00  0.00    +0.000 A 
ATOM      8  C   UNL     1      24.626   3.112  51.094  0.00  0.00    +0.000 A 
ATOM      9  C   UNL     1      23.475   2.753  51.834  0.00  0.00    +0.000 A 
ATOM     10  C   UNL     1      22.179   2.858  51.301  0.00  0.00    +0.000 A 
ENDROOT
BRANCH   1  12
ATOM     11  C   UNL     1      20.697   3.110  48.102  0.00  0.00    +0.000 C 
ATOM     12  O   UNL     1      20.798   3.497  49.473  0.00  0.00    +0.000 OA
ENDBRANCH   1  12
BRANCH   7  13
ATOM     13  N   UNL     1      26.210   2.380  52.798  0.00  0.00    +0.000 N 
ATOM     14  H   UNL     1      25.628   2.671  53.536  0.00  0.00    +0.000 HD
BRANCH  13  15
ATOM     15  C   UNL     1      27.221   1.446  53.109  0.00  0.00    +0.000 A 
ATOM     16  C   UNL     1      28.385   1.823  53.797  0.00  0.00    +0.000 A 
ATOM     17  C   UNL     1      29.359   0.885  54.138  0.00  0.00    +0.000 A 
ATOM     18  C   UNL     1      29.176  -0.458  53.818  0.00  0.00    +0.000 A 
ATOM     19  C   UNL     1      28.011  -0.856  53.166  0.00  0.00    +0.000 A 
ATOM     20 CL   UNL     1      27.790  -2.525  52.791  0.00  0.00    +0.000 Cl
ATOM     21  C   UNL     1      27.038   0.084  52.827  0.00  0.00    +0.000 A 
ATOM     22  F   UNL     1      25.912  -0.300  52.198  0.00  0.00    +0.000 F 
ENDBRANCH  13  15
ENDBRANCH   7  13
BRANCH  10  23
ATOM     23  C   UNL     1      21.032   2.156  52.007  0.00  0.00    +0.000 C 
BRANCH  23  24
ATOM     24  N   UNL     1      20.612   0.800  51.657  0.00  0.00    +0.000 N 
ATOM     25  C   UNL     1      19.327   0.725  50.963  0.00  0.00    +0.000 C 
ATOM     26  C   UNL     1      18.357   0.221  52.012  0.00  0.00    +0.000 C 
ATOM     27  C   UNL     1      19.186  -0.746  52.837  0.00  0.00    +0.000 C 
ATOM     28  C   UNL     1      20.642  -0.331  52.611  0.00  0.00    +0.000 C 
ATOM     29  H   UNL     1      21.431   0.641  51.070  0.00  0.00    +0.000 HD
BRANCH  28  30
ATOM     30  C   UNL     1      21.445  -0.156  53.901  0.00  0.00    +0.000 C 
ATOM     31  N   UNL     1      20.731   0.191  55.014  0.00  0.00    +0.000 N 
ATOM     32  O   UNL     1      22.666  -0.251  53.980  0.00  0.00    +0.000 OA
ATOM     33  H   UNL     1      19.751   0.272  54.965  0.00  0.00    +0.000 HD
ATOM     34  H   UNL     1      21.198   0.359  55.865  0.00  0.00    +0.000 HD
ENDBRANCH  28  30
ENDBRANCH  23  24
ENDBRANCH  10  23
TORSDOF 6
ENDMDL
MODEL 6
REMARK VINA RESULT:    -8.495      3.676      5.291
REMARK INTER + INTRA:         -13.115
REMARK INTER:                 -11.315
REMARK INTRA:                  -1.800
REMARK UNBOUND:                -1.640
REMARK  Name = 
REMARK  7 active torsions:
REMARK  status: ('A' for Active; 'I' for Inactive)
REMARK    1  A    between atoms: C_1  and  O_2
REMARK    2  A    between atoms: O_2  and  C_3
REMARK    3  A    between atoms: C_9  and  N_10
REMARK    4  A    between atoms: N_10  and  C_11
REMARK    5  A    between atoms: C_21  and  C_22
REMARK    6  A    between atoms: C_22  and  N_23
REMARK    7  A    between atoms: C_27  and  C_28
REMARK                            x       y       z     vdW  Elec       q    Type
REMARK                         _______ _______ _______ _____ _____    ______ ____
ROOT
ATOM      1  C   UNL     1      22.931   0.650  52.954  0.00  0.00    +0.000 A 
ATOM      2  C   UNL     1      24.208   0.679  53.538  0.00  0.00    +0.000 A 
ATOM      3  C   UNL     1      25.281   1.315  52.942  0.00  0.00    +0.000 A 
ATOM      4  N   UNL     1      26.428   1.399  53.624  0.00  0.00    +0.000 NA
ATOM      5  C   UNL     1      27.426   2.064  53.034  0.00  0.00    +0.000 A 
ATOM      6  N   UNL     1      27.390   2.622  51.824  0.00  0.00    +0.000 NA
ATOM      7  C   UNL     1      26.234   2.516  51.141  0.00  0.00    +0.000 A 
ATOM      8  C   UNL     1      25.108   1.868  51.672  0.00  0.00    +0.000 A 
ATOM      9  C   UNL     1      23.847   1.765  51.038  0.00  0.00    +0.000 A 
ATOM     10  C   UNL     1      22.732   1.196  51.674  0.00  0.00    +0.000 A 
ENDROOT
BRANCH   1  12
ATOM     11  C   UNL     1      22.131  -0.925  54.531  0.00  0.00    +0.000 C 
ATOM     12  O   UNL     1      21.843   0.119  53.600  0.00  0.00    +0.000 OA
ENDBRANCH   1  12
BRANCH   7  13
ATOM     13  N   UNL     1      26.159   3.109  49.856  0.00  0.00    +0.000 N 
ATOM     14  H   UNL     1      25.894   2.525  49.110  0.00  0.00    +0.000 HD
BRANCH  13  15
ATOM     15  C   UNL     1      26.427   4.460  49.548  0.00  0.00    +0.000 A 
ATOM     16  C   UNL     1      27.487   4.827  48.704  0.00  0.00    +0.000 A 
ATOM     17  C   UNL     1      27.717   6.161  48.370  0.00  0.00    +0.000 A 
ATOM     18  C   UNL     1      26.874   7.157  48.857  0.00  0.00    +0.000 A 
ATOM     19  C   UNL     1      25.796   6.809  49.668  0.00  0.00    +0.000 A 
ATOM     20 CL   UNL     1      24.750   8.050  50.249  0.00  0.00    +0.000 Cl
ATOM     21  C   UNL     1      25.567   5.473  49.999  0.00  0.00    +0.000 A 
ATOM     22  F   UNL     1      24.526   5.136  50.781  0.00  0.00    +0.000 F 
ENDBRANCH  13  15
ENDBRANCH   7  13
BRANCH  10  23
ATOM     23  C   UNL     1      21.351   1.414  51.079  0.00  0.00    +0.000 C 
BRANCH  23  24
ATOM     24  N   UNL     1      20.228   1.908  51.872  0.00  0.00    +0.000 N 
ATOM     25  C   UNL     1      18.947   1.266  51.573  0.00  0.00    +0.000 C 
ATOM     26  C   UNL     1      18.186   2.295  50.764  0.00  0.00    +0.000 C 
ATOM     27  C   UNL     1      18.601   3.619  51.379  0.00  0.00    +0.000 C 
ATOM     28  C   UNL     1      19.942   3.346  52.067  0.00  0.00    +0.000 C 
ATOM     29  H   UNL     1      20.657   1.627  52.753  0.00  0.00    +0.000 HD
BRANCH  28  30
ATOM     30  C   UNL     1      21.040   4.347  51.705  0.00  0.00    +0.000 C 
ATOM     31  N   UNL     1      20.971   4.893  50.454  0.00  0.00    +0.000 N 
ATOM     32  O   UNL     1      21.984   4.640  52.434  0.00  0.00    +0.000 OA
ATOM     33  H   UNL     1      20.220   4.667  49.859  0.00  0.00    +0.000 HD
ATOM     34  H   UNL     1      21.674   5.512  50.148  0.00  0.00    +0.000 HD
ENDBRANCH  28  30
ENDBRANCH  23  24
ENDBRANCH  10  23
TORSDOF 6
ENDMDL
MODEL 7
REMARK VINA RESULT:    -8.200      2.722      5.091
REMARK INTER + INTRA:         -12.717
REMARK INTER:                 -11.331
REMARK INTRA:                  -1.386
REMARK UNBOUND:                -1.640
REMARK  Name = 
REMARK  7 active torsions:
REMARK  status: ('A' for Active; 'I' for Inactive)
REMARK    1  A    between atoms: C_1  and  O_2
REMARK    2  A    between atoms: O_2  and  C_3
REMARK    3  A    between atoms: C_9  and  N_10
REMARK    4  A    between atoms: N_10  and  C_11
REMARK    5  A    between atoms: C_21  and  C_22
REMARK    6  A    between atoms: C_22  and  N_23
REMARK    7  A    between atoms: C_27  and  C_28
REMARK                            x       y       z     vdW  Elec       q    Type
REMARK                         _______ _______ _______ _____ _____    ______ ____
ROOT
ATOM      1  C   UNL     1      22.273   2.244  49.421  0.00  0.00    +0.000 A 
ATOM      2  C   UNL     1      23.340   3.037  48.970  0.00  0.00    +0.000 A 
ATOM      3  C   UNL     1      24.538   3.125  49.653  0.00  0.00    +0.000 A 
ATOM      4  N   UNL     1      25.543   3.805  49.089  0.00  0.00    +0.000 NA
ATOM      5  C   UNL     1      26.699   3.825  49.758  0.00  0.00    +0.000 A 
ATOM      6  N   UNL     1      26.932   3.259  50.943  0.00  0.00    +0.000 NA
ATOM      7  C   UNL     1      25.907   2.591  51.508  0.00  0.00    +0.000 A 
ATOM      8  C   UNL     1      24.655   2.475  50.883  0.00  0.00    +0.000 A 
ATOM      9  C   UNL     1      23.552   1.746  51.388  0.00  0.00    +0.000 A 
ATOM     10  C   UNL     1      22.364   1.582  50.658  0.00  0.00    +0.000 A 
ENDROOT
BRANCH   1  12
ATOM     11  C   UNL     1      20.558   3.258  48.141  0.00  0.00    +0.000 C 
ATOM     12  O   UNL     1      21.129   2.067  48.683  0.00  0.00    +0.000 OA
ENDBRANCH   1  12
BRANCH   7  13
ATOM     13  N   UNL     1      26.124   1.967  52.761  0.00  0.00    +0.000 N 
ATOM     14  H   UNL     1      25.449   2.121  53.460  0.00  0.00    +0.000 HD
BRANCH  13  15
ATOM     15  C   UNL     1      27.219   1.143  53.100  0.00  0.00    +0.000 A 
ATOM     16  C   UNL     1      28.310   1.633  53.834  0.00  0.00    +0.000 A 
ATOM     17  C   UNL     1      29.367   0.801  54.201  0.00  0.00    +0.000 A 
ATOM     18  C   UNL     1      29.342  -0.549  53.860  0.00  0.00    +0.000 A 
ATOM     19  C   UNL     1      28.251  -1.061  53.161  0.00  0.00    +0.000 A 
ATOM     20 CL   UNL     1      28.224  -2.738  52.761  0.00  0.00    +0.000 Cl
ATOM     21  C   UNL     1      27.194  -0.227  52.796  0.00  0.00    +0.000 A 
ATOM     22  F   UNL     1      26.140  -0.720  52.123  0.00  0.00    +0.000 F 
ENDBRANCH  13  15
ENDBRANCH   7  13
BRANCH  10  23
ATOM     23  C   UNL     1      21.363   0.531  51.104  0.00  0.00    +0.000 C 
BRANCH  23  24
ATOM     24  N   UNL     1      20.545   0.691  52.305  0.00  0.00    +0.000 N 
ATOM     25  C   UNL     1      21.009  -0.076  53.461  0.00  0.00    +0.000 C 
ATOM     26  C   UNL     1      20.043  -1.238  53.559  0.00  0.00    +0.000 C 
ATOM     27  C   UNL     1      18.714  -0.640  53.136  0.00  0.00    +0.000 C 
ATOM     28  C   UNL     1      19.069   0.593  52.300  0.00  0.00    +0.000 C 
ATOM     29  H   UNL     1      20.719   1.695  52.354  0.00  0.00    +0.000 HD
BRANCH  28  30
ATOM     30  C   UNL     1      18.353   0.655  50.950  0.00  0.00    +0.000 C 
ATOM     31  N   UNL     1      18.314   1.879  50.343  0.00  0.00    +0.000 N 
ATOM     32  O   UNL     1      17.781  -0.294  50.421  0.00  0.00    +0.000 OA
ATOM     33  H   UNL     1      18.768   2.648  50.756  0.00  0.00    +0.000 HD
ATOM     34  H   UNL     1      17.830   1.990  49.492  0.00  0.00    +0.000 HD
ENDBRANCH  28  30
ENDBRANCH  23  24
ENDBRANCH  10  23
TORSDOF 6
ENDMDL
MODEL 8
REMARK VINA RESULT:    -7.952      2.284      4.636
REMARK INTER + INTRA:         -12.382
REMARK INTER:                 -10.992
REMARK INTRA:                  -1.391
REMARK UNBOUND:                -1.640
REMARK  Name = 
REMARK  7 active torsions:
REMARK  status: ('A' for Active; 'I' for Inactive)
REMARK    1  A    between atoms: C_1  and  O_2
REMARK    2  A    between atoms: O_2  and  C_3
REMARK    3  A    between atoms: C_9  and  N_10
REMARK    4  A    between atoms: N_10  and  C_11
REMARK    5  A    between atoms: C_21  and  C_22
REMARK    6  A    between atoms: C_22  and  N_23
REMARK    7  A    between atoms: C_27  and  C_28
REMARK                            x       y       z     vdW  Elec       q    Type
REMARK                         _______ _______ _______ _____ _____    ______ ____
ROOT
ATOM      1  C   UNL     1      22.179   4.429  50.781  0.00  0.00    +0.000 A 
ATOM      2  C   UNL     1      23.320   4.616  49.984  0.00  0.00    +0.000 A 
ATOM      3  C   UNL     1      24.538   4.038  50.288  0.00  0.00    +0.000 A 
ATOM      4  N   UNL     1      25.540   4.168  49.412  0.00  0.00    +0.000 NA
ATOM      5  C   UNL     1      26.686   3.554  49.719  0.00  0.00    +0.000 A 
ATOM      6  N   UNL     1      26.929   2.854  50.827  0.00  0.00    +0.000 NA
ATOM      7  C   UNL     1      25.918   2.744  51.710  0.00  0.00    +0.000 A 
ATOM      8  C   UNL     1      24.658   3.320  51.479  0.00  0.00    +0.000 A 
ATOM      9  C   UNL     1      23.535   3.202  52.333  0.00  0.00    +0.000 A 
ATOM     10  C   UNL     1      22.274   3.713  51.987  0.00  0.00    +0.000 A 
ENDROOT
BRANCH   1  12
ATOM     11  C   UNL     1      20.953   6.149  49.709  0.00  0.00    +0.000 C 
ATOM     12  O   UNL     1      20.945   4.907  50.416  0.00  0.00    +0.000 OA
ENDBRANCH   1  12
BRANCH   7  13
ATOM     13  N   UNL     1      26.139   1.996  52.893  0.00  0.00    +0.000 N 
ATOM     14  H   UNL     1      25.860   2.409  53.741  0.00  0.00    +0.000 HD
BRANCH  13  15
ATOM     15  C   UNL     1      26.722   0.713  52.967  0.00  0.00    +0.000 A 
ATOM     16  C   UNL     1      26.022  -0.437  52.571  0.00  0.00    +0.000 A 
ATOM     17  C   UNL     1      26.621  -1.696  52.606  0.00  0.00    +0.000 A 
ATOM     18  C   UNL     1      27.945  -1.827  53.018  0.00  0.00    +0.000 A 
ATOM     19  C   UNL     1      28.666  -0.692  53.384  0.00  0.00    +0.000 A 
ATOM     20 CL   UNL     1      30.310  -0.866  53.875  0.00  0.00    +0.000 Cl
ATOM     21  C   UNL     1      28.065   0.566  53.345  0.00  0.00    +0.000 A 
ATOM     22  F   UNL     1      28.761   1.662  53.696  0.00  0.00    +0.000 F 
ENDBRANCH  13  15
ENDBRANCH   7  13
BRANCH  10  23
ATOM     23  C   UNL     1      21.055   3.270  52.779  0.00  0.00    +0.000 C 
BRANCH  23  24
ATOM     24  N   UNL     1      20.449   1.952  52.607  0.00  0.00    +0.000 N 
ATOM     25  C   UNL     1      21.399   0.885  52.289  0.00  0.00    +0.000 C 
ATOM     26  C   UNL     1      21.197   0.623  50.812  0.00  0.00    +0.000 C 
ATOM     27  C   UNL     1      19.706   0.823  50.609  0.00  0.00    +0.000 C 
ATOM     28  C   UNL     1      19.252   1.711  51.771  0.00  0.00    +0.000 C 
ATOM     29  H   UNL     1      20.084   1.937  53.559  0.00  0.00    +0.000 HD
BRANCH  28  30
ATOM     30  C   UNL     1      18.428   2.924  51.339  0.00  0.00    +0.000 C 
ATOM     31  N   UNL     1      18.563   3.314  50.036  0.00  0.00    +0.000 N 
ATOM     32  O   UNL     1      17.713   3.584  52.088  0.00  0.00    +0.000 OA
ATOM     33  H   UNL     1      19.133   2.795  49.424  0.00  0.00    +0.000 HD
ATOM     34  H   UNL     1      18.090   4.114  49.710  0.00  0.00    +0.000 HD
ENDBRANCH  28  30
ENDBRANCH  23  24
ENDBRANCH  10  23
TORSDOF 6
ENDMDL
MODEL 9
REMARK VINA RESULT:    -7.752      4.436      7.296
REMARK INTER + INTRA:         -12.112
REMARK INTER:                 -10.519
REMARK INTRA:                  -1.593
REMARK UNBOUND:                -1.640
REMARK  Name = 
REMARK  7 active torsions:
REMARK  status: ('A' for Active; 'I' for Inactive)
REMARK    1  A    between atoms: C_1  and  O_2
REMARK    2  A    between atoms: O_2  and  C_3
REMARK    3  A    between atoms: C_9  and  N_10
REMARK    4  A    between atoms: N_10  and  C_11
REMARK    5  A    between atoms: C_21  and  C_22
REMARK    6  A    between atoms: C_22  and  N_23
REMARK    7  A    between atoms: C_27  and  C_28
REMARK                            x       y       z     vdW  Elec       q    Type
REMARK                         _______ _______ _______ _____ _____    ______ ____
ROOT
ATOM      1  C   UNL     1      21.597   4.753  51.727  0.00  0.00    +0.000 A 
ATOM      2  C   UNL     1      21.112   5.823  50.959  0.00  0.00    +0.000 A 
ATOM      3  C   UNL     1      21.937   6.820  50.472  0.00  0.00    +0.000 A 
ATOM      4  N   UNL     1      21.412   7.734  49.649  0.00  0.00    +0.000 NA
ATOM      5  C   UNL     1      22.252   8.652  49.161  0.00  0.00    +0.000 A 
ATOM      6  N   UNL     1      23.551   8.756  49.444  0.00  0.00    +0.000 NA
ATOM      7  C   UNL     1      24.064   7.840  50.288  0.00  0.00    +0.000 A 
ATOM      8  C   UNL     1      23.284   6.809  50.837  0.00  0.00    +0.000 A 
ATOM      9  C   UNL     1      23.764   5.783  51.685  0.00  0.00    +0.000 A 
ATOM     10  C   UNL     1      22.949   4.721  52.110  0.00  0.00    +0.000 A 
ENDROOT
BRANCH   1  12
ATOM     11  C   UNL     1      19.584   3.558  51.372  0.00  0.00    +0.000 C 
ATOM     12  O   UNL     1      20.798   3.706  52.110  0.00  0.00    +0.000 OA
ENDBRANCH   1  12
BRANCH   7  13
ATOM     13  N   UNL     1      25.444   7.915  50.600  0.00  0.00    +0.000 N 
ATOM     14  H   UNL     1      25.683   8.256  51.491  0.00  0.00    +0.000 HD
BRANCH  13  15
ATOM     15  C   UNL     1      26.509   7.544  49.750  0.00  0.00    +0.000 A 
ATOM     16  C   UNL     1      26.540   6.296  49.110  0.00  0.00    +0.000 A 
ATOM     17  C   UNL     1      27.573   5.955  48.239  0.00  0.00    +0.000 A 
ATOM     18  C   UNL     1      28.589   6.869  47.970  0.00  0.00    +0.000 A 
ATOM     19  C   UNL     1      28.557   8.127  48.570  0.00  0.00    +0.000 A 
ATOM     20 CL   UNL     1      29.811   9.256  48.216  0.00  0.00    +0.000 Cl
ATOM     21  C   UNL     1      27.521   8.465  49.440  0.00  0.00    +0.000 A 
ATOM     22  F   UNL     1      27.489   9.679  50.019  0.00  0.00    +0.000 F 
ENDBRANCH  13  15
ENDBRANCH   7  13
BRANCH  10  23
ATOM     23  C   UNL     1      23.598   3.497  52.733  0.00  0.00    +0.000 C 
BRANCH  23  24
ATOM     24  N   UNL     1      23.777   2.247  51.996  0.00  0.00    +0.000 N 
ATOM     25  C   UNL     1      22.957   1.136  52.479  0.00  0.00    +0.000 C 
ATOM     26  C   UNL     1      23.924   0.250  53.236  0.00  0.00    +0.000 C 
ATOM     27  C   UNL     1      25.213   0.362  52.443  0.00  0.00    +0.000 C 
ATOM     28  C   UNL     1      25.104   1.680  51.670  0.00  0.00    +0.000 C 
ATOM     29  H   UNL     1      23.471   2.661  51.116  0.00  0.00    +0.000 HD
BRANCH  28  30
ATOM     30  C   UNL     1      26.325   2.589  51.818  0.00  0.00    +0.000 C 
ATOM     31  N   UNL     1      27.004   2.502  53.002  0.00  0.00    +0.000 N 
ATOM     32  O   UNL     1      26.689   3.409  50.980  0.00  0.00    +0.000 OA
ATOM     33  H   UNL     1      26.723   1.849  53.683  0.00  0.00    +0.000 HD
ATOM     34  H   UNL     1      27.773   3.093  53.172  0.00  0.00    +0.000 HD
ENDBRANCH  28  30
ENDBRANCH  23  24
ENDBRANCH  10  23
TORSDOF 6
ENDMDL
