MODEL 1
REMARK VINA RESULT:   -10.057      0.000      0.000
REMARK INTER + INTRA:         -14.611
REMARK INTER:                 -12.997
REMARK INTRA:                  -1.614
REMARK UNBOUND:                -1.614
REMARK  Name = 
REMARK  9 active torsions:
REMARK  status: ('A' for Active; 'I' for Inactive)
REMARK    1  A    between atoms: C_1  and  C_2
REMARK    2  A    between atoms: C_2  and  C_3
REMARK    3  A    between atoms: C_9  and  N_10
REMARK    4  A    between atoms: C_12  and  C_13
REMARK    5  A    between atoms: C_21  and  C_22
REMARK    6  A    between atoms: N_27  and  C_28
REMARK    7  A    between atoms: C_31  and  N_32
REMARK    8  A    between atoms: N_35  and  C_36
REMARK    9  A    between atoms: C_39  and  C_40
REMARK                            x       y       z     vdW  Elec       q    Type
REMARK                         _______ _______ _______ _____ _____    ______ ____
ROOT
ATOM      1  N   UNL     1      21.982   1.195  51.205  0.00  0.00    +0.000 N 
ATOM      2  C   UNL     1      23.389   1.150  51.577  0.00  0.00    +0.000 C 
ATOM      3  C   UNL     1      23.708   0.299  52.774  0.00  0.00    +0.000 C 
ATOM      4  C   UNL     1      22.797  -0.368  53.508  0.00  0.00    +0.000 C 
ATOM      5  C   UNL     1      23.114  -1.199  54.722  0.00  0.00    +0.000 C 
ATOM      6  C   UNL     1      21.389  -0.235  53.075  0.00  0.00    +0.000 A 
ATOM      7  C   UNL     1      20.334  -0.839  53.738  0.00  0.00    +0.000 A 
ATOM      8  N   UNL     1      19.037  -0.709  53.397  0.00  0.00    +0.000 NA
ATOM      9  C   UNL     1      18.787   0.034  52.317  0.00  0.00    +0.000 A 
ATOM     10  N   UNL     1      17.448   0.223  51.987  0.00  0.00    +0.000 N 
ATOM     11  N   UNL     1      19.740   0.642  51.596  0.00  0.00    +0.000 NA
ATOM     12  C   UNL     1      21.029   0.532  51.967  0.00  0.00    +0.000 A 
ATOM     13  H   UNL     1      16.823   0.305  52.742  0.00  0.00    +0.000 HD
ENDROOT
BRANCH   1  20
ATOM     14  C   UNL     1      21.388   5.617  49.075  0.00  0.00    +0.000 C 
ATOM     15  O   UNL     1      21.097   6.224  48.044  0.00  0.00    +0.000 OA
ATOM     16  N   UNL     1      21.920   4.334  49.051  0.00  0.00    +0.000 N 
ATOM     17  C   UNL     1      22.308   3.744  47.774  0.00  0.00    +0.000 C 
ATOM     18  C   UNL     1      21.623   2.398  47.571  0.00  0.00    +0.000 C 
ATOM     19  C   UNL     1      21.904   1.452  48.737  0.00  0.00    +0.000 C 
ATOM     20  C   UNL     1      21.561   2.089  50.100  0.00  0.00    +0.000 C 
ATOM     21  C   UNL     1      22.193   3.500  50.227  0.00  0.00    +0.000 C 
BRANCH  14  23
ATOM     22  C   UNL     1      22.253   7.340  50.719  0.00  0.00    +0.000 C 
ATOM     23  C   UNL     1      21.221   6.257  50.444  0.00  0.00    +0.000 C 
ENDBRANCH  14  23
ENDBRANCH   1  20
BRANCH   3  24
ATOM     24  C   UNL     1      25.158   0.269  53.065  0.00  0.00    +0.000 A 
ATOM     25  C   UNL     1      25.837  -0.940  52.848  0.00  0.00    +0.000 A 
ATOM     26  C   UNL     1      27.222  -1.015  53.015  0.00  0.00    +0.000 A 
ATOM     27  C   UNL     1      27.933   0.118  53.400  0.00  0.00    +0.000 A 
ATOM     28  C   UNL     1      27.263   1.316  53.629  0.00  0.00    +0.000 A 
ATOM     29  F   UNL     1      27.978   2.392  53.987  0.00  0.00    +0.000 F 
ATOM     30  C   UNL     1      25.877   1.405  53.468  0.00  0.00    +0.000 A 
ATOM     31 CL   UNL     1      25.099   2.925  53.741  0.00  0.00    +0.000 Cl
ENDBRANCH   3  24
BRANCH  10  32
ATOM     32  C   UNL     1      16.884   0.310  50.706  0.00  0.00    +0.000 A 
ATOM     33  C   UNL     1      16.603   1.565  50.182  0.00  0.00    +0.000 A 
ATOM     34  C   UNL     1      16.009   1.694  48.923  0.00  0.00    +0.000 A 
ATOM     35  C   UNL     1      15.620   0.583  48.150  0.00  0.00    +0.000 A 
ATOM     36  C   UNL     1      15.919  -0.693  48.674  0.00  0.00    +0.000 A 
ATOM     37  C   UNL     1      15.515  -1.998  48.038  0.00  0.00    +0.000 C 
ATOM     38  C   UNL     1      16.559  -0.806  49.933  0.00  0.00    +0.000 A 
BRANCH  35  39
ATOM     39  N   UNL     1      14.872   0.755  46.990  0.00  0.00    +0.000 N 
ATOM     40  C   UNL     1      13.428   1.041  47.098  0.00  0.00    +0.000 C 
ATOM     41  C   UNL     1      12.714   0.553  45.818  0.00  0.00    +0.000 C 
ATOM     42  N   UNL     1      13.282   1.146  44.585  0.00  0.00    +0.000 N 
ATOM     43  C   UNL     1      12.612   0.606  43.407  0.00  0.00    +0.000 C 
ATOM     44  C   UNL     1      14.741   0.878  44.544  0.00  0.00    +0.000 C 
ATOM     45  C   UNL     1      15.466   1.415  45.810  0.00  0.00    +0.000 C 
ATOM     46  H   UNL     1      13.133   2.156  44.588  0.00  0.00    +0.000 HD
ENDBRANCH  35  39
ENDBRANCH  10  32
TORSDOF 5
ENDMDL
MODEL 2
REMARK VINA RESULT:    -9.903      3.429      4.047
REMARK INTER + INTRA:         -14.412
REMARK INTER:                 -13.309
REMARK INTRA:                  -1.103
REMARK UNBOUND:                -1.614
REMARK  Name = 
REMARK  9 active torsions:
REMARK  status: ('A' for Active; 'I' for Inactive)
REMARK    1  A    between atoms: C_1  and  C_2
REMARK    2  A    between atoms: C_2  and  C_3
REMARK    3  A    between atoms: C_9  and  N_10
REMARK    4  A    between atoms: C_12  and  C_13
REMARK    5  A    between atoms: C_21  and  C_22
REMARK    6  A    between atoms: N_27  and  C_28
REMARK    7  A    between atoms: C_31  and  N_32
REMARK    8  A    between atoms: N_35  and  C_36
REMARK    9  A    between atoms: C_39  and  C_40
REMARK                            x       y       z     vdW  Elec       q    Type
REMARK                         _______ _______ _______ _____ _____    ______ ____
ROOT
ATOM      1  N   UNL     1      24.436   2.318  51.224  0.00  0.00    +0.000 N 
ATOM      2  C   UNL     1      25.643   1.604  51.615  0.00  0.00    +0.000 C 
ATOM      3  C   UNL     1      25.437   0.493  52.605  0.00  0.00    +0.000 C 
ATOM      4  C   UNL     1      24.252   0.159  53.150  0.00  0.00    +0.000 C 
ATOM      5  C   UNL     1      24.051  -0.938  54.161  0.00  0.00    +0.000 C 
ATOM      6  C   UNL     1      23.088   0.963  52.719  0.00  0.00    +0.000 A 
ATOM      7  C   UNL     1      21.807   0.759  53.205  0.00  0.00    +0.000 A 
ATOM      8  N   UNL     1      20.731   1.495  52.866  0.00  0.00    +0.000 NA
ATOM      9  C   UNL     1      20.941   2.461  51.968  0.00  0.00    +0.000 A 
ATOM     10  N   UNL     1      19.850   3.264  51.651  0.00  0.00    +0.000 N 
ATOM     11  N   UNL     1      22.138   2.722  51.424  0.00  0.00    +0.000 NA
ATOM     12  C   UNL     1      23.212   2.001  51.796  0.00  0.00    +0.000 A 
ATOM     13  H   UNL     1      19.231   3.465  52.389  0.00  0.00    +0.000 HD
ENDROOT
BRANCH   1  20
ATOM     14  C   UNL     1      23.442   6.970  49.876  0.00  0.00    +0.000 C 
ATOM     15  O   UNL     1      23.718   7.893  49.110  0.00  0.00    +0.000 OA
ATOM     16  N   UNL     1      24.365   5.989  50.213  0.00  0.00    +0.000 N 
ATOM     17  C   UNL     1      25.754   6.138  49.790  0.00  0.00    +0.000 C 
ATOM     18  C   UNL     1      26.216   4.912  49.012  0.00  0.00    +0.000 C 
ATOM     19  C   UNL     1      26.007   3.632  49.819  0.00  0.00    +0.000 C 
ATOM     20  C   UNL     1      24.557   3.496  50.329  0.00  0.00    +0.000 C 
ATOM     21  C   UNL     1      24.089   4.799  51.027  0.00  0.00    +0.000 C 
BRANCH  14  23
ATOM     22  C   UNL     1      20.954   7.391  49.651  0.00  0.00    +0.000 C 
ATOM     23  C   UNL     1      22.075   6.872  50.537  0.00  0.00    +0.000 C 
ENDBRANCH  14  23
ENDBRANCH   1  20
BRANCH   3  24
ATOM     24  C   UNL     1      26.699  -0.212  52.921  0.00  0.00    +0.000 A 
ATOM     25  C   UNL     1      26.784  -1.571  52.581  0.00  0.00    +0.000 A 
ATOM     26  C   UNL     1      27.976  -2.275  52.768  0.00  0.00    +0.000 A 
ATOM     27  C   UNL     1      29.088  -1.622  53.295  0.00  0.00    +0.000 A 
ATOM     28  C   UNL     1      29.005  -0.278  53.644  0.00  0.00    +0.000 A 
ATOM     29  F   UNL     1      30.096   0.324  54.138  0.00  0.00    +0.000 F 
ATOM     30  C   UNL     1      27.817   0.438  53.465  0.00  0.00    +0.000 A 
ATOM     31 CL   UNL     1      27.778   2.113  53.893  0.00  0.00    +0.000 Cl
ENDBRANCH   3  24
BRANCH  10  32
ATOM     32  C   UNL     1      19.528   3.823  50.406  0.00  0.00    +0.000 A 
ATOM     33  C   UNL     1      18.369   4.580  50.291  0.00  0.00    +0.000 A 
ATOM     34  C   UNL     1      17.994   5.125  49.060  0.00  0.00    +0.000 A 
ATOM     35  C   UNL     1      18.725   4.901  47.876  0.00  0.00    +0.000 A 
ATOM     36  C   UNL     1      19.912   4.145  47.995  0.00  0.00    +0.000 A 
ATOM     37  C   UNL     1      20.785   3.733  46.838  0.00  0.00    +0.000 C 
ATOM     38  C   UNL     1      20.299   3.634  49.258  0.00  0.00    +0.000 A 
BRANCH  35  39
ATOM     39  N   UNL     1      18.222   5.310  46.646  0.00  0.00    +0.000 N 
ATOM     40  C   UNL     1      16.855   4.911  46.257  0.00  0.00    +0.000 C 
ATOM     41  C   UNL     1      16.751   4.878  44.717  0.00  0.00    +0.000 C 
ATOM     42  N   UNL     1      17.127   6.167  44.090  0.00  0.00    +0.000 N 
ATOM     43  C   UNL     1      17.069   6.060  42.636  0.00  0.00    +0.000 C 
ATOM     44  C   UNL     1      18.486   6.552  44.548  0.00  0.00    +0.000 C 
ATOM     45  C   UNL     1      18.575   6.634  46.098  0.00  0.00    +0.000 C 
ATOM     46  H   UNL     1      16.467   6.893  44.372  0.00  0.00    +0.000 HD
ENDBRANCH  35  39
ENDBRANCH  10  32
TORSDOF 5
ENDMDL
MODEL 3
REMARK VINA RESULT:    -8.851      4.127      7.487
REMARK INTER + INTRA:         -13.052
REMARK INTER:                 -11.265
REMARK INTRA:                  -1.788
REMARK UNBOUND:                -1.614
REMARK  Name = 
REMARK  9 active torsions:
REMARK  status: ('A' for Active; 'I' for Inactive)
REMARK    1  A    between atoms: C_1  and  C_2
REMARK    2  A    between atoms: C_2  and  C_3
REMARK    3  A    between atoms: C_9  and  N_10
REMARK    4  A    between atoms: C_12  and  C_13
REMARK    5  A    between atoms: C_21  and  C_22
REMARK    6  A    between atoms: N_27  and  C_28
REMARK    7  A    between atoms: C_31  and  N_32
REMARK    8  A    between atoms: N_35  and  C_36
REMARK    9  A    between atoms: C_39  and  C_40
REMARK                            x       y       z     vdW  Elec       q    Type
REMARK                         _______ _______ _______ _____ _____    ______ ____
ROOT
ATOM      1  N   UNL     1      23.786   5.969  49.727  0.00  0.00    +0.000 N 
ATOM      2  C   UNL     1      25.058   6.669  49.813  0.00  0.00    +0.000 C 
ATOM      3  C   UNL     1      25.473   7.399  48.567  0.00  0.00    +0.000 C 
ATOM      4  C   UNL     1      24.776   7.412  47.415  0.00  0.00    +0.000 C 
ATOM      5  C   UNL     1      25.205   8.122  46.159  0.00  0.00    +0.000 C 
ATOM      6  C   UNL     1      23.513   6.643  47.411  0.00  0.00    +0.000 A 
ATOM      7  C   UNL     1      22.695   6.538  46.299  0.00  0.00    +0.000 A 
ATOM      8  N   UNL     1      21.558   5.817  46.245  0.00  0.00    +0.000 NA
ATOM      9  C   UNL     1      21.205   5.198  47.374  0.00  0.00    +0.000 A 
ATOM     10  N   UNL     1      20.063   4.403  47.317  0.00  0.00    +0.000 N 
ATOM     11  N   UNL     1      21.917   5.256  48.509  0.00  0.00    +0.000 NA
ATOM     12  C   UNL     1      23.067   5.952  48.539  0.00  0.00    +0.000 A 
ATOM     13  H   UNL     1      19.914   3.919  46.474  0.00  0.00    +0.000 HD
ENDROOT
BRANCH   1  20
ATOM     14  C   UNL     1      22.647   1.676  51.900  0.00  0.00    +0.000 C 
ATOM     15  O   UNL     1      22.377   1.106  52.957  0.00  0.00    +0.000 OA
ATOM     16  N   UNL     1      23.407   2.838  51.861  0.00  0.00    +0.000 N 
ATOM     17  C   UNL     1      24.052   3.311  53.081  0.00  0.00    +0.000 C 
ATOM     18  C   UNL     1      23.660   4.755  53.374  0.00  0.00    +0.000 C 
ATOM     19  C   UNL     1      23.966   5.664  52.185  0.00  0.00    +0.000 C 
ATOM     20  C   UNL     1      23.345   5.138  50.874  0.00  0.00    +0.000 C 
ATOM     21  C   UNL     1      23.683   3.639  50.662  0.00  0.00    +0.000 C 
BRANCH  14  23
ATOM     22  C   UNL     1      20.910   0.310  50.661  0.00  0.00    +0.000 C 
ATOM     23  C   UNL     1      22.196   1.115  50.560  0.00  0.00    +0.000 C 
ENDBRANCH  14  23
ENDBRANCH   1  20
BRANCH   3  24
ATOM     24  C   UNL     1      26.753   8.121  48.744  0.00  0.00    +0.000 A 
ATOM     25  C   UNL     1      26.688   9.473  49.112  0.00  0.00    +0.000 A 
ATOM     26  C   UNL     1      27.856  10.190  49.384  0.00  0.00    +0.000 A 
ATOM     27  C   UNL     1      29.093   9.557  49.289  0.00  0.00    +0.000 A 
ATOM     28  C   UNL     1      29.163   8.219  48.913  0.00  0.00    +0.000 A 
ATOM     29  F   UNL     1      30.367   7.636  48.841  0.00  0.00    +0.000 F 
ATOM     30  C   UNL     1      28.002   7.491  48.634  0.00  0.00    +0.000 A 
ATOM     31 CL   UNL     1      28.146   5.824  48.195  0.00  0.00    +0.000 Cl
ENDBRANCH   3  24
BRANCH  10  32
ATOM     32  C   UNL     1      19.100   4.211  48.318  0.00  0.00    +0.000 A 
ATOM     33  C   UNL     1      19.458   3.523  49.470  0.00  0.00    +0.000 A 
ATOM     34  C   UNL     1      18.520   3.280  50.476  0.00  0.00    +0.000 A 
ATOM     35  C   UNL     1      17.169   3.666  50.363  0.00  0.00    +0.000 A 
ATOM     36  C   UNL     1      16.807   4.379  49.200  0.00  0.00    +0.000 A 
ATOM     37  C   UNL     1      15.402   4.808  48.860  0.00  0.00    +0.000 C 
ATOM     38  C   UNL     1      17.780   4.653  48.209  0.00  0.00    +0.000 A 
BRANCH  35  39
ATOM     39  N   UNL     1      16.233   3.248  51.303  0.00  0.00    +0.000 N 
ATOM     40  C   UNL     1      16.191   1.826  51.697  0.00  0.00    +0.000 C 
ATOM     41  C   UNL     1      14.767   1.471  52.179  0.00  0.00    +0.000 C 
ATOM     42  N   UNL     1      14.305   2.342  53.285  0.00  0.00    +0.000 N 
ATOM     43  C   UNL     1      12.936   2.004  53.659  0.00  0.00    +0.000 C 
ATOM     44  C   UNL     1      14.412   3.762  52.863  0.00  0.00    +0.000 C 
ATOM     45  C   UNL     1      15.858   4.130  52.425  0.00  0.00    +0.000 C 
ATOM     46  H   UNL     1      14.892   2.198  54.106  0.00  0.00    +0.000 HD
ENDBRANCH  35  39
ENDBRANCH  10  32
TORSDOF 5
ENDMDL
MODEL 4
REMARK VINA RESULT:    -8.841      4.919     10.591
REMARK INTER + INTRA:         -13.039
REMARK INTER:                 -12.357
REMARK INTRA:                  -0.681
REMARK UNBOUND:                -1.614
REMARK  Name = 
REMARK  9 active torsions:
REMARK  status: ('A' for Active; 'I' for Inactive)
REMARK    1  A    between atoms: C_1  and  C_2
REMARK    2  A    between atoms: C_2  and  C_3
REMARK    3  A    between atoms: C_9  and  N_10
REMARK    4  A    between atoms: C_12  and  C_13
REMARK    5  A    between atoms: C_21  and  C_22
REMARK    6  A    between atoms: N_27  and  C_28
REMARK    7  A    between atoms: C_31  and  N_32
REMARK    8  A    between atoms: N_35  and  C_36
REMARK    9  A    between atoms: C_39  and  C_40
REMARK                            x       y       z     vdW  Elec       q    Type
REMARK                         _______ _______ _______ _____ _____    ______ ____
ROOT
ATOM      1  N   UNL     1      22.457   4.149  50.496  0.00  0.00    +0.000 N 
ATOM      2  C   UNL     1      21.643   2.981  50.803  0.00  0.00    +0.000 C 
ATOM      3  C   UNL     1      20.159   3.186  50.684  0.00  0.00    +0.000 C 
ATOM      4  C   UNL     1      19.567   4.349  50.353  0.00  0.00    +0.000 C 
ATOM      5  C   UNL     1      18.080   4.559  50.259  0.00  0.00    +0.000 C 
ATOM      6  C   UNL     1      20.473   5.488  50.093  0.00  0.00    +0.000 A 
ATOM      7  C   UNL     1      20.020   6.755  49.766  0.00  0.00    +0.000 A 
ATOM      8  N   UNL     1      20.811   7.826  49.560  0.00  0.00    +0.000 NA
ATOM      9  C   UNL     1      22.125   7.608  49.651  0.00  0.00    +0.000 A 
ATOM     10  N   UNL     1      22.952   8.717  49.497  0.00  0.00    +0.000 N 
ATOM     11  N   UNL     1      22.663   6.415  49.941  0.00  0.00    +0.000 NA
ATOM     12  C   UNL     1      21.860   5.361  50.178  0.00  0.00    +0.000 A 
ATOM     13  H   UNL     1      22.612   9.565  49.860  0.00  0.00    +0.000 HD
ENDROOT
BRANCH   1  20
ATOM     14  C   UNL     1      26.578   2.114  52.318  0.00  0.00    +0.000 C 
ATOM     15  O   UNL     1      27.809   2.108  52.300  0.00  0.00    +0.000 OA
ATOM     16  N   UNL     1      25.825   2.532  51.228  0.00  0.00    +0.000 N 
ATOM     17  C   UNL     1      26.495   2.813  49.962  0.00  0.00    +0.000 C 
ATOM     18  C   UNL     1      26.164   4.218  49.476  0.00  0.00    +0.000 C 
ATOM     19  C   UNL     1      24.654   4.427  49.373  0.00  0.00    +0.000 C 
ATOM     20  C   UNL     1      23.926   4.069  50.686  0.00  0.00    +0.000 C 
ATOM     21  C   UNL     1      24.365   2.674  51.202  0.00  0.00    +0.000 C 
BRANCH  14  23
ATOM     22  C   UNL     1      25.550   0.122  53.499  0.00  0.00    +0.000 C 
ATOM     23  C   UNL     1      25.802   1.621  53.530  0.00  0.00    +0.000 C 
ENDBRANCH  14  23
ENDBRANCH   1  20
BRANCH   3  24
ATOM     24  C   UNL     1      19.402   1.947  50.969  0.00  0.00    +0.000 A 
ATOM     25  C   UNL     1      18.518   1.486  49.981  0.00  0.00    +0.000 A 
ATOM     26  C   UNL     1      17.839   0.276  50.147  0.00  0.00    +0.000 A 
ATOM     27  C   UNL     1      18.042  -0.478  51.300  0.00  0.00    +0.000 A 
ATOM     28  C   UNL     1      18.909  -0.019  52.287  0.00  0.00    +0.000 A 
ATOM     29  F   UNL     1      19.091  -0.773  53.381  0.00  0.00    +0.000 F 
ATOM     30  C   UNL     1      19.592   1.192  52.137  0.00  0.00    +0.000 A 
ATOM     31 CL   UNL     1      20.676   1.701  53.385  0.00  0.00    +0.000 Cl
ENDBRANCH   3  24
BRANCH  10  32
ATOM     32  C   UNL     1      24.213   8.769  48.885  0.00  0.00    +0.000 A 
ATOM     33  C   UNL     1      24.320   8.440  47.540  0.00  0.00    +0.000 A 
ATOM     34  C   UNL     1      25.563   8.446  46.902  0.00  0.00    +0.000 A 
ATOM     35  C   UNL     1      26.764   8.730  47.582  0.00  0.00    +0.000 A 
ATOM     36  C   UNL     1      26.656   9.079  48.945  0.00  0.00    +0.000 A 
ATOM     37  C   UNL     1      27.825   9.339  49.859  0.00  0.00    +0.000 C 
ATOM     38  C   UNL     1      25.384   9.108  49.567  0.00  0.00    +0.000 A 
BRANCH  35  39
ATOM     39  N   UNL     1      27.992   8.549  46.954  0.00  0.00    +0.000 N 
ATOM     40  C   UNL     1      28.724   7.282  47.152  0.00  0.00    +0.000 C 
ATOM     41  C   UNL     1      30.236   7.531  46.956  0.00  0.00    +0.000 C 
ATOM     42  N   UNL     1      30.551   8.126  45.636  0.00  0.00    +0.000 N 
ATOM     43  C   UNL     1      31.981   8.395  45.530  0.00  0.00    +0.000 C 
ATOM     44  C   UNL     1      29.756   9.368  45.460  0.00  0.00    +0.000 C 
ATOM     45  C   UNL     1      28.231   9.106  45.608  0.00  0.00    +0.000 C 
ATOM     46  H   UNL     1      30.305   7.470  44.895  0.00  0.00    +0.000 HD
ENDBRANCH  35  39
ENDBRANCH  10  32
TORSDOF 5
ENDMDL
MODEL 5
REMARK VINA RESULT:    -8.668      2.572      3.534
REMARK INTER + INTRA:         -12.816
REMARK INTER:                 -11.964
REMARK INTRA:                  -0.852
REMARK UNBOUND:                -1.614
REMARK  Name = 
REMARK  9 active torsions:
REMARK  status: ('A' for Active; 'I' for Inactive)
REMARK    1  A    between atoms: C_1  and  C_2
REMARK    2  A    between atoms: C_2  and  C_3
REMARK    3  A    between atoms: C_9  and  N_10
REMARK    4  A    between atoms: C_12  and  C_13
REMARK    5  A    between atoms: C_21  and  C_22
REMARK    6  A    between atoms: N_27  and  C_28
REMARK    7  A    between atoms: C_31  and  N_32
REMARK    8  A    between atoms: N_35  and  C_36
REMARK    9  A    between atoms: C_39  and  C_40
REMARK                            x       y       z     vdW  Elec       q    Type
REMARK                         _______ _______ _______ _____ _____    ______ ____
ROOT
ATOM      1  N   UNL     1      23.928   2.272  51.768  0.00  0.00    +0.000 N 
ATOM      2  C   UNL     1      25.274   1.829  52.100  0.00  0.00    +0.000 C 
ATOM      3  C   UNL     1      25.350   0.665  53.048  0.00  0.00    +0.000 C 
ATOM      4  C   UNL     1      24.286   0.059  53.608  0.00  0.00    +0.000 C 
ATOM      5  C   UNL     1      24.364  -1.090  54.577  0.00  0.00    +0.000 C 
ATOM      6  C   UNL     1      22.960   0.600  53.238  0.00  0.00    +0.000 A 
ATOM      7  C   UNL     1      21.772   0.102  53.746  0.00  0.00    +0.000 A 
ATOM      8  N   UNL     1      20.550   0.593  53.464  0.00  0.00    +0.000 NA
ATOM      9  C   UNL     1      20.513   1.612  52.602  0.00  0.00    +0.000 A 
ATOM     10  N   UNL     1      19.262   2.165  52.345  0.00  0.00    +0.000 N 
ATOM     11  N   UNL     1      21.605   2.150  52.040  0.00  0.00    +0.000 NA
ATOM     12  C   UNL     1      22.822   1.672  52.356  0.00  0.00    +0.000 A 
ATOM     13  H   UNL     1      18.638   2.198  53.105  0.00  0.00    +0.000 HD
ENDROOT
BRANCH   1  20
ATOM     14  C   UNL     1      21.978   4.771  47.974  0.00  0.00    +0.000 C 
ATOM     15  O   UNL     1      21.855   5.868  47.429  0.00  0.00    +0.000 OA
ATOM     16  N   UNL     1      22.211   4.647  49.338  0.00  0.00    +0.000 N 
ATOM     17  C   UNL     1      22.140   5.833  50.186  0.00  0.00    +0.000 C 
ATOM     18  C   UNL     1      23.426   6.003  50.985  0.00  0.00    +0.000 C 
ATOM     19  C   UNL     1      23.745   4.748  51.795  0.00  0.00    +0.000 C 
ATOM     20  C   UNL     1      23.758   3.477  50.921  0.00  0.00    +0.000 C 
ATOM     21  C   UNL     1      22.478   3.391  50.049  0.00  0.00    +0.000 C 
BRANCH  14  23
ATOM     22  C   UNL     1      21.912   3.688  45.685  0.00  0.00    +0.000 C 
ATOM     23  C   UNL     1      21.841   3.476  47.189  0.00  0.00    +0.000 C 
ENDBRANCH  14  23
ENDBRANCH   1  20
BRANCH   3  24
ATOM     24  C   UNL     1      26.746   0.246  53.305  0.00  0.00    +0.000 A 
ATOM     25  C   UNL     1      27.533   1.078  54.116  0.00  0.00    +0.000 A 
ATOM     26  C   UNL     1      28.829   0.698  54.473  0.00  0.00    +0.000 A 
ATOM     27  C   UNL     1      29.343  -0.515  54.020  0.00  0.00    +0.000 A 
ATOM     28  C   UNL     1      28.570  -1.337  53.206  0.00  0.00    +0.000 A 
ATOM     29  F   UNL     1      29.089  -2.503  52.796  0.00  0.00    +0.000 F 
ATOM     30  C   UNL     1      27.273  -0.968  52.838  0.00  0.00    +0.000 A 
ATOM     31 CL   UNL     1      26.348  -2.040  51.844  0.00  0.00    +0.000 Cl
ENDBRANCH   3  24
BRANCH  10  32
ATOM     32  C   UNL     1      18.785   2.681  51.132  0.00  0.00    +0.000 A 
ATOM     33  C   UNL     1      19.088   3.994  50.797  0.00  0.00    +0.000 A 
ATOM     34  C   UNL     1      18.604   4.558  49.613  0.00  0.00    +0.000 A 
ATOM     35  C   UNL     1      17.753   3.860  48.733  0.00  0.00    +0.000 A 
ATOM     36  C   UNL     1      17.455   2.520  49.065  0.00  0.00    +0.000 A 
ATOM     37  C   UNL     1      16.507   1.637  48.296  0.00  0.00    +0.000 C 
ATOM     38  C   UNL     1      17.989   1.951  50.247  0.00  0.00    +0.000 A 
BRANCH  35  39
ATOM     39  N   UNL     1      17.150   4.515  47.664  0.00  0.00    +0.000 N 
ATOM     40  C   UNL     1      15.987   5.388  47.915  0.00  0.00    +0.000 C 
ATOM     41  C   UNL     1      15.118   5.461  46.641  0.00  0.00    +0.000 C 
ATOM     42  N   UNL     1      15.880   5.919  45.455  0.00  0.00    +0.000 N 
ATOM     43  C   UNL     1      15.028   5.911  44.271  0.00  0.00    +0.000 C 
ATOM     44  C   UNL     1      17.065   5.044  45.271  0.00  0.00    +0.000 C 
ATOM     45  C   UNL     1      17.965   5.012  46.539  0.00  0.00    +0.000 C 
ATOM     46  H   UNL     1      16.198   6.878  45.599  0.00  0.00    +0.000 HD
ENDBRANCH  35  39
ENDBRANCH  10  32
TORSDOF 5
ENDMDL
MODEL 6
REMARK VINA RESULT:    -8.496      4.256      9.155
REMARK INTER + INTRA:         -12.593
REMARK INTER:                 -11.609
REMARK INTRA:                  -0.984
REMARK UNBOUND:                -1.614
REMARK  Name = 
REMARK  9 active torsions:
REMARK  status: ('A' for Active; 'I' for Inactive)
REMARK    1  A    between atoms: C_1  and  C_2
REMARK    2  A    between atoms: C_2  and  C_3
REMARK    3  A    between atoms: C_9  and  N_10
REMARK    4  A    between atoms: C_12  and  C_13
REMARK    5  A    between atoms: C_21  and  C_22
REMARK    6  A    between atoms: N_27  and  C_28
REMARK    7  A    between atoms: C_31  and  N_32
REMARK    8  A    between atoms: N_35  and  C_36
REMARK    9  A    between atoms: C_39  and  C_40
REMARK                            x       y       z     vdW  Elec       q    Type
REMARK                         _______ _______ _______ _____ _____    ______ ____
ROOT
ATOM      1  N   UNL     1      19.520   1.530  49.814  0.00  0.00    +0.000 N 
ATOM      2  C   UNL     1      18.146   1.051  49.769  0.00  0.00    +0.000 C 
ATOM      3  C   UNL     1      17.722   0.211  50.940  0.00  0.00    +0.000 C 
ATOM      4  C   UNL     1      18.520  -0.134  51.968  0.00  0.00    +0.000 C 
ATOM      5  C   UNL     1      18.102  -0.997  53.129  0.00  0.00    +0.000 C 
ATOM      6  C   UNL     1      19.909   0.370  51.910  0.00  0.00    +0.000 A 
ATOM      7  C   UNL     1      20.858   0.084  52.877  0.00  0.00    +0.000 A 
ATOM      8  N   UNL     1      22.142   0.492  52.839  0.00  0.00    +0.000 NA
ATOM      9  C   UNL     1      22.483   1.255  51.798  0.00  0.00    +0.000 A 
ATOM     10  N   UNL     1      23.819   1.637  51.717  0.00  0.00    +0.000 N 
ATOM     11  N   UNL     1      21.632   1.605  50.823  0.00  0.00    +0.000 NA
ATOM     12  C   UNL     1      20.362   1.163  50.855  0.00  0.00    +0.000 A 
ATOM     13  H   UNL     1      24.478   0.973  52.022  0.00  0.00    +0.000 HD
ENDROOT
BRANCH   1  20
ATOM     14  C   UNL     1      20.311   5.646  47.191  0.00  0.00    +0.000 C 
ATOM     15  O   UNL     1      20.899   6.151  46.235  0.00  0.00    +0.000 OA
ATOM     16  N   UNL     1      20.807   4.534  47.859  0.00  0.00    +0.000 N 
ATOM     17  C   UNL     1      22.144   4.044  47.539  0.00  0.00    +0.000 C 
ATOM     18  C   UNL     1      22.103   2.569  47.161  0.00  0.00    +0.000 C 
ATOM     19  C   UNL     1      21.444   1.734  48.257  0.00  0.00    +0.000 C 
ATOM     20  C   UNL     1      20.057   2.281  48.653  0.00  0.00    +0.000 C 
ATOM     21  C   UNL     1      20.120   3.805  48.933  0.00  0.00    +0.000 C 
BRANCH  14  23
ATOM     22  C   UNL     1      19.238   7.520  48.515  0.00  0.00    +0.000 C 
ATOM     23  C   UNL     1      19.017   6.239  47.727  0.00  0.00    +0.000 C 
ENDBRANCH  14  23
ENDBRANCH   1  20
BRANCH   3  24
ATOM     24  C   UNL     1      16.304  -0.203  50.844  0.00  0.00    +0.000 A 
ATOM     25  C   UNL     1      16.023  -1.394  50.158  0.00  0.00    +0.000 A 
ATOM     26  C   UNL     1      14.718  -1.890  50.107  0.00  0.00    +0.000 A 
ATOM     27  C   UNL     1      13.690  -1.198  50.743  0.00  0.00    +0.000 A 
ATOM     28  C   UNL     1      13.963  -0.010  51.414  0.00  0.00    +0.000 A 
ATOM     29  F   UNL     1      12.954   0.627  52.025  0.00  0.00    +0.000 F 
ATOM     30  C   UNL     1      15.263   0.500  51.470  0.00  0.00    +0.000 A 
ATOM     31 CL   UNL     1      15.549   1.968  52.340  0.00  0.00    +0.000 Cl
ENDBRANCH   3  24
BRANCH  10  32
ATOM     32  C   UNL     1      24.337   2.854  51.252  0.00  0.00    +0.000 A 
ATOM     33  C   UNL     1      23.655   4.028  51.542  0.00  0.00    +0.000 A 
ATOM     34  C   UNL     1      24.119   5.258  51.069  0.00  0.00    +0.000 A 
ATOM     35  C   UNL     1      25.255   5.373  50.243  0.00  0.00    +0.000 A 
ATOM     36  C   UNL     1      25.959   4.182  49.959  0.00  0.00    +0.000 A 
ATOM     37  C   UNL     1      27.146   4.087  49.035  0.00  0.00    +0.000 C 
ATOM     38  C   UNL     1      25.498   2.949  50.481  0.00  0.00    +0.000 A 
BRANCH  35  39
ATOM     39  N   UNL     1      25.576   6.588  49.648  0.00  0.00    +0.000 N 
ATOM     40  C   UNL     1      24.960   6.945  48.355  0.00  0.00    +0.000 C 
ATOM     41  C   UNL     1      25.888   7.921  47.598  0.00  0.00    +0.000 C 
ATOM     42  N   UNL     1      26.207   9.134  48.387  0.00  0.00    +0.000 N 
ATOM     43  C   UNL     1      27.132   9.989  47.651  0.00  0.00    +0.000 C 
ATOM     44  C   UNL     1      26.777   8.726  49.696  0.00  0.00    +0.000 C 
ATOM     45  C   UNL     1      25.819   7.784  50.479  0.00  0.00    +0.000 C 
ATOM     46  H   UNL     1      25.356   9.672  48.552  0.00  0.00    +0.000 HD
ENDBRANCH  35  39
ENDBRANCH  10  32
TORSDOF 5
ENDMDL
MODEL 7
REMARK VINA RESULT:    -8.449      3.067      4.543
REMARK INTER + INTRA:         -12.532
REMARK INTER:                 -11.787
REMARK INTRA:                  -0.745
REMARK UNBOUND:                -1.614
REMARK  Name = 
REMARK  9 active torsions:
REMARK  status: ('A' for Active; 'I' for Inactive)
REMARK    1  A    between atoms: C_1  and  C_2
REMARK    2  A    between atoms: C_2  and  C_3
REMARK    3  A    between atoms: C_9  and  N_10
REMARK    4  A    between atoms: C_12  and  C_13
REMARK    5  A    between atoms: C_21  and  C_22
REMARK    6  A    between atoms: N_27  and  C_28
REMARK    7  A    between atoms: C_31  and  N_32
REMARK    8  A    between atoms: N_35  and  C_36
REMARK    9  A    between atoms: C_39  and  C_40
REMARK                            x       y       z     vdW  Elec       q    Type
REMARK                         _______ _______ _______ _____ _____    ______ ____
ROOT
ATOM      1  N   UNL     1      21.914   3.363  50.115  0.00  0.00    +0.000 N 
ATOM      2  C   UNL     1      23.063   4.140  49.673  0.00  0.00    +0.000 C 
ATOM      3  C   UNL     1      24.344   3.864  50.408  0.00  0.00    +0.000 C 
ATOM      4  C   UNL     1      24.473   2.997  51.430  0.00  0.00    +0.000 C 
ATOM      5  C   UNL     1      25.751   2.739  52.183  0.00  0.00    +0.000 C 
ATOM      6  C   UNL     1      23.244   2.279  51.832  0.00  0.00    +0.000 A 
ATOM      7  C   UNL     1      23.206   1.373  52.879  0.00  0.00    +0.000 A 
ATOM      8  N   UNL     1      22.099   0.730  53.299  0.00  0.00    +0.000 NA
ATOM      9  C   UNL     1      20.982   0.979  52.613  0.00  0.00    +0.000 A 
ATOM     10  N   UNL     1      19.819   0.365  53.071  0.00  0.00    +0.000 N 
ATOM     11  N   UNL     1      20.921   1.822  51.572  0.00  0.00    +0.000 NA
ATOM     12  C   UNL     1      22.026   2.484  51.183  0.00  0.00    +0.000 A 
ATOM     13  H   UNL     1      19.735   0.270  54.046  0.00  0.00    +0.000 HD
ENDROOT
BRANCH   1  20
ATOM     14  C   UNL     1      17.085   4.395  50.351  0.00  0.00    +0.000 C 
ATOM     15  O   UNL     1      16.077   4.716  49.722  0.00  0.00    +0.000 OA
ATOM     16  N   UNL     1      18.363   4.721  49.915  0.00  0.00    +0.000 N 
ATOM     17  C   UNL     1      18.522   5.614  48.772  0.00  0.00    +0.000 C 
ATOM     18  C   UNL     1      19.390   4.969  47.699  0.00  0.00    +0.000 C 
ATOM     19  C   UNL     1      20.740   4.533  48.266  0.00  0.00    +0.000 C 
ATOM     20  C   UNL     1      20.586   3.642  49.516  0.00  0.00    +0.000 C 
ATOM     21  C   UNL     1      19.617   4.286  50.541  0.00  0.00    +0.000 C 
BRANCH  14  23
ATOM     22  C   UNL     1      15.620   3.780  52.325  0.00  0.00    +0.000 C 
ATOM     23  C   UNL     1      16.988   3.652  51.675  0.00  0.00    +0.000 C 
ENDBRANCH  14  23
ENDBRANCH   1  20
BRANCH   3  24
ATOM     24  C   UNL     1      25.474   4.658  49.876  0.00  0.00    +0.000 A 
ATOM     25  C   UNL     1      26.509   3.962  49.234  0.00  0.00    +0.000 A 
ATOM     26  C   UNL     1      27.561   4.656  48.630  0.00  0.00    +0.000 A 
ATOM     27  C   UNL     1      27.581   6.048  48.665  0.00  0.00    +0.000 A 
ATOM     28  C   UNL     1      26.562   6.741  49.310  0.00  0.00    +0.000 A 
ATOM     29  F   UNL     1      26.604   8.081  49.316  0.00  0.00    +0.000 F 
ATOM     30  C   UNL     1      25.505   6.060  49.922  0.00  0.00    +0.000 A 
ATOM     31 CL   UNL     1      24.253   6.975  50.689  0.00  0.00    +0.000 Cl
ENDBRANCH   3  24
BRANCH  10  32
ATOM     32  C   UNL     1      18.755  -0.135  52.308  0.00  0.00    +0.000 A 
ATOM     33  C   UNL     1      18.526   0.398  51.046  0.00  0.00    +0.000 A 
ATOM     34  C   UNL     1      17.455  -0.048  50.267  0.00  0.00    +0.000 A 
ATOM     35  C   UNL     1      16.531  -1.008  50.726  0.00  0.00    +0.000 A 
ATOM     36  C   UNL     1      16.770  -1.562  52.002  0.00  0.00    +0.000 A 
ATOM     37  C   UNL     1      15.858  -2.539  52.698  0.00  0.00    +0.000 C 
ATOM     38  C   UNL     1      17.885  -1.128  52.762  0.00  0.00    +0.000 A 
BRANCH  35  39
ATOM     39  N   UNL     1      15.382  -1.290  49.995  0.00  0.00    +0.000 N 
ATOM     40  C   UNL     1      14.127  -0.585  50.323  0.00  0.00    +0.000 C 
ATOM     41  C   UNL     1      12.925  -1.460  49.903  0.00  0.00    +0.000 C 
ATOM     42  N   UNL     1      12.965  -1.836  48.470  0.00  0.00    +0.000 N 
ATOM     43  C   UNL     1      11.843  -2.709  48.143  0.00  0.00    +0.000 C 
ATOM     44  C   UNL     1      14.263  -2.495  48.176  0.00  0.00    +0.000 C 
ATOM     45  C   UNL     1      15.471  -1.592  48.553  0.00  0.00    +0.000 C 
ATOM     46  H   UNL     1      12.882  -1.000  47.892  0.00  0.00    +0.000 HD
ENDBRANCH  35  39
ENDBRANCH  10  32
TORSDOF 5
ENDMDL
MODEL 8
REMARK VINA RESULT:    -8.188      4.035      6.960
REMARK INTER + INTRA:         -12.195
REMARK INTER:                 -10.838
REMARK INTRA:                  -1.357
REMARK UNBOUND:                -1.614
REMARK  Name = 
REMARK  9 active torsions:
REMARK  status: ('A' for Active; 'I' for Inactive)
REMARK    1  A    between atoms: C_1  and  C_2
REMARK    2  A    between atoms: C_2  and  C_3
REMARK    3  A    between atoms: C_9  and  N_10
REMARK    4  A    between atoms: C_12  and  C_13
REMARK    5  A    between atoms: C_21  and  C_22
REMARK    6  A    between atoms: N_27  and  C_28
REMARK    7  A    between atoms: C_31  and  N_32
REMARK    8  A    between atoms: N_35  and  C_36
REMARK    9  A    between atoms: C_39  and  C_40
REMARK                            x       y       z     vdW  Elec       q    Type
REMARK                         _______ _______ _______ _____ _____    ______ ____
ROOT
ATOM      1  N   UNL     1      18.757   2.057  49.869  0.00  0.00    +0.000 N 
ATOM      2  C   UNL     1      19.365   2.988  48.929  0.00  0.00    +0.000 C 
ATOM      3  C   UNL     1      20.865   3.056  48.975  0.00  0.00    +0.000 C 
ATOM      4  C   UNL     1      21.641   2.356  49.825  0.00  0.00    +0.000 C 
ATOM      5  C   UNL     1      23.143   2.444  49.887  0.00  0.00    +0.000 C 
ATOM      6  C   UNL     1      20.933   1.463  50.766  0.00  0.00    +0.000 A 
ATOM      7  C   UNL     1      21.586   0.695  51.717  0.00  0.00    +0.000 A 
ATOM      8  N   UNL     1      20.974  -0.099  52.616  0.00  0.00    +0.000 NA
ATOM      9  C   UNL     1      19.642  -0.156  52.536  0.00  0.00    +0.000 A 
ATOM     10  N   UNL     1      18.993  -0.929  53.495  0.00  0.00    +0.000 N 
ATOM     11  N   UNL     1      18.921   0.531  51.639  0.00  0.00    +0.000 NA
ATOM     12  C   UNL     1      19.542   1.347  50.768  0.00  0.00    +0.000 A 
ATOM     13  H   UNL     1      19.389  -0.924  54.395  0.00  0.00    +0.000 HD
ENDROOT
BRANCH   1  20
ATOM     14  C   UNL     1      14.377   3.526  51.631  0.00  0.00    +0.000 C 
ATOM     15  O   UNL     1      13.153   3.438  51.529  0.00  0.00    +0.000 OA
ATOM     16  N   UNL     1      15.225   3.304  50.553  0.00  0.00    +0.000 N 
ATOM     17  C   UNL     1      14.657   3.130  49.220  0.00  0.00    +0.000 C 
ATOM     18  C   UNL     1      15.136   1.825  48.596  0.00  0.00    +0.000 C 
ATOM     19  C   UNL     1      16.661   1.748  48.573  0.00  0.00    +0.000 C 
ATOM     20  C   UNL     1      17.278   1.998  49.966  0.00  0.00    +0.000 C 
ATOM     21  C   UNL     1      16.692   3.281  50.610  0.00  0.00    +0.000 C 
BRANCH  14  23
ATOM     22  C   UNL     1      14.045   4.474  53.956  0.00  0.00    +0.000 C 
ATOM     23  C   UNL     1      15.036   3.926  52.942  0.00  0.00    +0.000 C 
ENDBRANCH  14  23
ENDBRANCH   1  20
BRANCH   3  24
ATOM     24  C   UNL     1      21.411   3.989  47.965  0.00  0.00    +0.000 A 
ATOM     25  C   UNL     1      21.522   3.523  46.646  0.00  0.00    +0.000 A 
ATOM     26  C   UNL     1      21.943   4.379  45.625  0.00  0.00    +0.000 A 
ATOM     27  C   UNL     1      22.256   5.704  45.920  0.00  0.00    +0.000 A 
ATOM     28  C   UNL     1      22.160   6.166  47.228  0.00  0.00    +0.000 A 
ATOM     29  F   UNL     1      22.457   7.450  47.477  0.00  0.00    +0.000 F 
ATOM     30  C   UNL     1      21.742   5.320  48.260  0.00  0.00    +0.000 A 
ATOM     31 CL   UNL     1      21.616   5.956  49.864  0.00  0.00    +0.000 Cl
ENDBRANCH   3  24
BRANCH  10  32
ATOM     32  C   UNL     1      17.843  -1.713  53.330  0.00  0.00    +0.000 A 
ATOM     33  C   UNL     1      17.858  -3.028  53.777  0.00  0.00    +0.000 A 
ATOM     34  C   UNL     1      16.744  -3.853  53.602  0.00  0.00    +0.000 A 
ATOM     35  C   UNL     1      15.582  -3.427  52.928  0.00  0.00    +0.000 A 
ATOM     36  C   UNL     1      15.559  -2.086  52.486  0.00  0.00    +0.000 A 
ATOM     37  C   UNL     1      14.445  -1.468  51.681  0.00  0.00    +0.000 C 
ATOM     38  C   UNL     1      16.681  -1.251  52.709  0.00  0.00    +0.000 A 
BRANCH  35  39
ATOM     39  N   UNL     1      14.573  -4.332  52.617  0.00  0.00    +0.000 N 
ATOM     40  C   UNL     1      13.242  -4.168  53.234  0.00  0.00    +0.000 C 
ATOM     41  C   UNL     1      12.535  -5.540  53.298  0.00  0.00    +0.000 C 
ATOM     42  N   UNL     1      12.430  -6.191  51.971  0.00  0.00    +0.000 N 
ATOM     43  C   UNL     1      11.811  -7.506  52.100  0.00  0.00    +0.000 C 
ATOM     44  C   UNL     1      13.783  -6.289  51.369  0.00  0.00    +0.000 C 
ATOM     45  C   UNL     1      14.472  -4.900  51.259  0.00  0.00    +0.000 C 
ATOM     46  H   UNL     1      11.837  -5.631  51.358  0.00  0.00    +0.000 HD
ENDBRANCH  35  39
ENDBRANCH  10  32
TORSDOF 5
ENDMDL
MODEL 9
REMARK VINA RESULT:    -8.137      4.276     10.165
REMARK INTER + INTRA:         -12.130
REMARK INTER:                 -10.835
REMARK INTRA:                  -1.295
REMARK UNBOUND:                -1.614
REMARK  Name = 
REMARK  9 active torsions:
REMARK  status: ('A' for Active; 'I' for Inactive)
REMARK    1  A    between atoms: C_1  and  C_2
REMARK    2  A    between atoms: C_2  and  C_3
REMARK    3  A    between atoms: C_9  and  N_10
REMARK    4  A    between atoms: C_12  and  C_13
REMARK    5  A    between atoms: C_21  and  C_22
REMARK    6  A    between atoms: N_27  and  C_28
REMARK    7  A    between atoms: C_31  and  N_32
REMARK    8  A    between atoms: N_35  and  C_36
REMARK    9  A    between atoms: C_39  and  C_40
REMARK                            x       y       z     vdW  Elec       q    Type
REMARK                         _______ _______ _______ _____ _____    ______ ____
ROOT
ATOM      1  N   UNL     1      19.252   2.257  50.470  0.00  0.00    +0.000 N 
ATOM      2  C   UNL     1      18.326   1.140  50.588  0.00  0.00    +0.000 C 
ATOM      3  C   UNL     1      16.979   1.356  49.959  0.00  0.00    +0.000 C 
ATOM      4  C   UNL     1      16.589   2.490  49.347  0.00  0.00    +0.000 C 
ATOM      5  C   UNL     1      15.230   2.714  48.740  0.00  0.00    +0.000 C 
ATOM      6  C   UNL     1      17.584   3.582  49.306  0.00  0.00    +0.000 A 
ATOM      7  C   UNL     1      17.329   4.817  48.734  0.00  0.00    +0.000 A 
ATOM      8  N   UNL     1      18.196   5.848  48.712  0.00  0.00    +0.000 NA
ATOM      9  C   UNL     1      19.392   5.619  49.258  0.00  0.00    +0.000 A 
ATOM     10  N   UNL     1      20.277   6.692  49.292  0.00  0.00    +0.000 N 
ATOM     11  N   UNL     1      19.743   4.452  49.817  0.00  0.00    +0.000 NA
ATOM     12  C   UNL     1      18.856   3.441  49.863  0.00  0.00    +0.000 A 
ATOM     13  H   UNL     1      19.877   7.579  49.443  0.00  0.00    +0.000 HD
ENDROOT
BRANCH   1  20
ATOM     14  C   UNL     1      22.529   0.162  53.523  0.00  0.00    +0.000 C 
ATOM     15  O   UNL     1      23.692   0.158  53.927  0.00  0.00    +0.000 OA
ATOM     16  N   UNL     1      22.189   0.619  52.255  0.00  0.00    +0.000 N 
ATOM     17  C   UNL     1      23.248   0.947  51.306  0.00  0.00    +0.000 C 
ATOM     18  C   UNL     1      23.083   2.368  50.783  0.00  0.00    +0.000 C 
ATOM     19  C   UNL     1      21.697   2.579  50.177  0.00  0.00    +0.000 C 
ATOM     20  C   UNL     1      20.569   2.172  51.148  0.00  0.00    +0.000 C 
ATOM     21  C   UNL     1      20.824   0.760  51.735  0.00  0.00    +0.000 C 
BRANCH  14  23
ATOM     22  C   UNL     1      21.408  -1.892  54.493  0.00  0.00    +0.000 C 
ATOM     23  C   UNL     1      21.392  -0.376  54.377  0.00  0.00    +0.000 C 
ENDBRANCH  14  23
ENDBRANCH   1  20
BRANCH   3  24
ATOM     24  C   UNL     1      16.109   0.164  50.083  0.00  0.00    +0.000 A 
ATOM     25  C   UNL     1      16.135  -0.768  49.034  0.00  0.00    +0.000 A 
ATOM     26  C   UNL     1      15.409  -1.958  49.127  0.00  0.00    +0.000 A 
ATOM     27  C   UNL     1      14.655  -2.220  50.268  0.00  0.00    +0.000 A 
ATOM     28  C   UNL     1      14.617  -1.293  51.304  0.00  0.00    +0.000 A 
ATOM     29  F   UNL     1      13.890  -1.581  52.394  0.00  0.00    +0.000 F 
ATOM     30  C   UNL     1      15.336  -0.097  51.225  0.00  0.00    +0.000 A 
ATOM     31 CL   UNL     1      15.272   1.008  52.554  0.00  0.00    +0.000 Cl
ENDBRANCH   3  24
BRANCH  10  32
ATOM     32  C   UNL     1      21.670   6.662  49.138  0.00  0.00    +0.000 A 
ATOM     33  C   UNL     1      22.457   6.306  50.225  0.00  0.00    +0.000 A 
ATOM     34  C   UNL     1      23.851   6.296  50.123  0.00  0.00    +0.000 A 
ATOM     35  C   UNL     1      24.529   6.688  48.952  0.00  0.00    +0.000 A 
ATOM     36  C   UNL     1      23.730   7.035  47.840  0.00  0.00    +0.000 A 
ATOM     37  C   UNL     1      24.263   7.553  46.529  0.00  0.00    +0.000 C 
ATOM     38  C   UNL     1      22.319   7.000  47.948  0.00  0.00    +0.000 A 
BRANCH  35  39
ATOM     39  N   UNL     1      25.912   6.836  48.951  0.00  0.00    +0.000 N 
ATOM     40  C   UNL     1      26.522   7.925  49.739  0.00  0.00    +0.000 C 
ATOM     41  C   UNL     1      27.879   8.312  49.110  0.00  0.00    +0.000 C 
ATOM     42  N   UNL     1      28.803   7.160  48.991  0.00  0.00    +0.000 N 
ATOM     43  C   UNL     1      30.042   7.569  48.338  0.00  0.00    +0.000 C 
ATOM     44  C   UNL     1      28.130   6.073  48.236  0.00  0.00    +0.000 C 
ATOM     45  C   UNL     1      26.789   5.650  48.899  0.00  0.00    +0.000 C 
ATOM     46  H   UNL     1      29.045   6.814  49.920  0.00  0.00    +0.000 HD
ENDBRANCH  35  39
ENDBRANCH  10  32
TORSDOF 5
ENDMDL
