MODEL 1
REMARK VINA RESULT:    -9.096      0.000      0.000
REMARK INTER + INTRA:         -16.082
REMARK INTER:                 -14.945
REMARK INTRA:                  -1.137
REMARK UNBOUND:                -1.137
REMARK  Name = 
REMARK  15 active torsions:
REMARK  status: ('A' for Active; 'I' for Inactive)
REMARK    1  A    between atoms: C_2  and  C_3
REMARK    2  A    between atoms: N_5  and  C_6
REMARK    3  A    between atoms: C_8  and  S_9
REMARK    4  A    between atoms: S_9  and  C_10
REMARK    5  A    between atoms: C_10  and  C_11
REMARK    6  A    between atoms: N_17  and  C_18
REMARK    7  A    between atoms: C_28  and  O_29
REMARK    8  A    between atoms: O_29  and  C_30
REMARK    9  A    between atoms: C_32  and  N_33
REMARK   10  A    between atoms: N_33  and  C_34
REMARK   11  A    between atoms: N_33  and  C_35
REMARK   12  A    between atoms: C_35  and  C_36
REMARK   13  A    between atoms: C_36  and  N_37
REMARK   14  A    between atoms: N_37  and  C_38
REMARK   15  A    between atoms: N_37  and  C_39
REMARK                            x       y       z     vdW  Elec       q    Type
REMARK                         _______ _______ _______ _____ _____    ______ ____
ROOT
ATOM      1  C   UNL     1      25.362   6.429  49.829  0.00  0.00    +0.000 A 
ATOM      2  C   UNL     1      24.380   5.480  50.196  0.00  0.00    +0.000 A 
ATOM      3  C   UNL     1      23.060   5.845  50.486  0.00  0.00    +0.000 A 
ATOM      4  C   UNL     1      22.763   7.218  50.473  0.00  0.00    +0.000 A 
ATOM      5  C   UNL     1      23.760   8.156  50.135  0.00  0.00    +0.000 A 
ATOM      6  C   UNL     1      25.073   7.812  49.760  0.00  0.00    +0.000 A 
ENDROOT
BRANCH   1   9
ATOM      7  C   UNL     1      27.078   4.734  49.092  0.00  0.00    +0.000 C 
ATOM      8  O   UNL     1      28.213   4.620  48.622  0.00  0.00    +0.000 OA
ATOM      9  N   UNL     1      26.634   5.957  49.462  0.00  0.00    +0.000 N 
ATOM     10  H   UNL     1      27.334   6.649  49.477  0.00  0.00    +0.000 HD
BRANCH   7  12
ATOM     11  C   UNL     1      26.634   2.702  50.337  0.00  0.00    +0.000 C 
ATOM     12  C   UNL     1      26.242   3.551  49.376  0.00  0.00    +0.000 C 
ENDBRANCH   7  12
ENDBRANCH   1   9
BRANCH   4  13
ATOM     13  O   UNL     1      21.589   7.811  50.876  0.00  0.00    +0.000 OA
ATOM     14  C   UNL     1      20.509   7.852  49.946  0.00  0.00    +0.000 C 
ENDBRANCH   4  13
BRANCH   6  15
ATOM     15  N   UNL     1      26.004   8.797  49.432  0.00  0.00    +0.000 N 
ATOM     16  C   UNL     1      25.758   9.764  48.371  0.00  0.00    +0.000 C 
BRANCH  15  17
ATOM     17  C   UNL     1      27.143   9.135  50.313  0.00  0.00    +0.000 C 
BRANCH  17  18
ATOM     18  C   UNL     1      28.362   9.730  49.564  0.00  0.00    +0.000 C 
BRANCH  18  19
ATOM     19  N   UNL     1      29.442   8.723  49.459  0.00  0.00    +0.000 N 
ATOM     20  C   UNL     1      29.354   7.931  48.232  0.00  0.00    +0.000 C 
ATOM     21  C   UNL     1      30.772   9.320  49.573  0.00  0.00    +0.000 C 
ATOM     22  H   UNL     1      29.305   8.095  50.251  0.00  0.00    +0.000 HD
ENDBRANCH  18  19
ENDBRANCH  17  18
ENDBRANCH  15  17
ENDBRANCH   6  15
BRANCH   3  23
ATOM     23  S   UNL     1      21.880   4.583  50.965  0.00  0.00    +0.000 S 
BRANCH  23  24
ATOM     24  C   UNL     1      22.387   3.106  49.975  0.00  0.00    +0.000 C 
BRANCH  24  25
ATOM     25  C   UNL     1      22.382   1.857  50.836  0.00  0.00    +0.000 A 
ATOM     26  N   UNL     1      21.186   1.247  51.034  0.00  0.00    +0.000 NA
ATOM     27  C   UNL     1      21.108   0.248  51.949  0.00  0.00    +0.000 A 
ATOM     28  C   UNL     1      22.235  -0.095  52.685  0.00  0.00    +0.000 A 
ATOM     29  N   UNL     1      22.412  -0.947  53.740  0.00  0.00    +0.000 NA
ATOM     30  C   UNL     1      23.669  -0.780  54.089  0.00  0.00    +0.000 A 
ATOM     31  N   UNL     1      24.360   0.088  53.259  0.00  0.00    +0.000 N 
ATOM     32  C   UNL     1      23.417   0.554  52.352  0.00  0.00    +0.000 A 
ATOM     33  N   UNL     1      23.554   1.514  51.416  0.00  0.00    +0.000 NA
BRANCH  31  34
ATOM     34  C   UNL     1      25.728   0.480  53.390  0.00  0.00    +0.000 A 
ATOM     35  C   UNL     1      26.074   1.773  53.818  0.00  0.00    +0.000 A 
ATOM     36  C   UNL     1      27.415   2.119  54.012  0.00  0.00    +0.000 A 
ATOM     37  C   UNL     1      28.410   1.167  53.833  0.00  0.00    +0.000 A 
ATOM     38  F   UNL     1      29.683   1.506  54.080  0.00  0.00    +0.000 F 
ATOM     39  C   UNL     1      28.079  -0.121  53.428  0.00  0.00    +0.000 A 
ATOM     40 BR   UNL     1      29.400  -1.475  53.360  0.00  0.00    +0.000 Br
ATOM     41  C   UNL     1      26.750  -0.455  53.152  0.00  0.00    +0.000 A 
ENDBRANCH  31  34
ENDBRANCH  24  25
ENDBRANCH  23  24
ENDBRANCH   3  23
TORSDOF 11
ENDMDL
MODEL 2
REMARK VINA RESULT:    -8.737      3.858      6.451
REMARK INTER + INTRA:         -15.492
REMARK INTER:                 -13.570
REMARK INTRA:                  -1.922
REMARK UNBOUND:                -1.137
REMARK  Name = 
REMARK  15 active torsions:
REMARK  status: ('A' for Active; 'I' for Inactive)
REMARK    1  A    between atoms: C_2  and  C_3
REMARK    2  A    between atoms: N_5  and  C_6
REMARK    3  A    between atoms: C_8  and  S_9
REMARK    4  A    between atoms: S_9  and  C_10
REMARK    5  A    between atoms: C_10  and  C_11
REMARK    6  A    between atoms: N_17  and  C_18
REMARK    7  A    between atoms: C_28  and  O_29
REMARK    8  A    between atoms: O_29  and  C_30
REMARK    9  A    between atoms: C_32  and  N_33
REMARK   10  A    between atoms: N_33  and  C_34
REMARK   11  A    between atoms: N_33  and  C_35
REMARK   12  A    between atoms: C_35  and  C_36
REMARK   13  A    between atoms: C_36  and  N_37
REMARK   14  A    between atoms: N_37  and  C_38
REMARK   15  A    between atoms: N_37  and  C_39
REMARK                            x       y       z     vdW  Elec       q    Type
REMARK                         _______ _______ _______ _____ _____    ______ ____
ROOT
ATOM      1  C   UNL     1      25.116   2.139  52.633  0.00  0.00    +0.000 A 
ATOM      2  C   UNL     1      24.329   1.124  53.226  0.00  0.00    +0.000 A 
ATOM      3  C   UNL     1      23.277   0.502  52.545  0.00  0.00    +0.000 A 
ATOM      4  C   UNL     1      22.978   0.982  51.260  0.00  0.00    +0.000 A 
ATOM      5  C   UNL     1      23.751   2.017  50.692  0.00  0.00    +0.000 A 
ATOM      6  C   UNL     1      24.865   2.606  51.321  0.00  0.00    +0.000 A 
ENDROOT
BRANCH   1   9
ATOM      7  C   UNL     1      27.459   2.157  53.567  0.00  0.00    +0.000 C 
ATOM      8  O   UNL     1      28.309   2.886  54.084  0.00  0.00    +0.000 OA
ATOM      9  N   UNL     1      26.211   2.637  53.360  0.00  0.00    +0.000 N 
ATOM     10  H   UNL     1      26.037   3.499  53.801  0.00  0.00    +0.000 HD
BRANCH   7  12
ATOM     11  C   UNL     1      28.949   0.245  53.576  0.00  0.00    +0.000 C 
ATOM     12  C   UNL     1      27.736   0.734  53.285  0.00  0.00    +0.000 C 
ENDBRANCH   7  12
ENDBRANCH   1   9
BRANCH   4  13
ATOM     13  O   UNL     1      21.901   0.635  50.478  0.00  0.00    +0.000 OA
ATOM     14  C   UNL     1      21.761   1.277  49.213  0.00  0.00    +0.000 C 
ENDBRANCH   4  13
BRANCH   6  15
ATOM     15  N   UNL     1      25.586   3.621  50.694  0.00  0.00    +0.000 N 
ATOM     16  C   UNL     1      26.693   3.333  49.792  0.00  0.00    +0.000 C 
BRANCH  15  17
ATOM     17  C   UNL     1      25.105   5.018  50.643  0.00  0.00    +0.000 C 
BRANCH  17  18
ATOM     18  C   UNL     1      25.540   5.787  49.369  0.00  0.00    +0.000 C 
BRANCH  18  19
ATOM     19  N   UNL     1      26.609   6.758  49.695  0.00  0.00    +0.000 N 
ATOM     20  C   UNL     1      27.556   6.941  48.595  0.00  0.00    +0.000 C 
ATOM     21  C   UNL     1      26.075   8.052  50.116  0.00  0.00    +0.000 C 
ATOM     22  H   UNL     1      27.114   6.350  50.482  0.00  0.00    +0.000 HD
ENDBRANCH  18  19
ENDBRANCH  17  18
ENDBRANCH  15  17
ENDBRANCH   6  15
BRANCH   3  23
ATOM     23  S   UNL     1      22.313  -0.763  53.375  0.00  0.00    +0.000 S 
BRANCH  23  24
ATOM     24  C   UNL     1      20.979   0.190  54.230  0.00  0.00    +0.000 C 
BRANCH  24  25
ATOM     25  C   UNL     1      19.900   0.599  53.245  0.00  0.00    +0.000 A 
ATOM     26  N   UNL     1      19.000  -0.350  52.883  0.00  0.00    +0.000 NA
ATOM     27  C   UNL     1      18.144  -0.082  51.865  0.00  0.00    +0.000 A 
ATOM     28  C   UNL     1      18.236   1.132  51.196  0.00  0.00    +0.000 A 
ATOM     29  N   UNL     1      17.611   1.607  50.077  0.00  0.00    +0.000 NA
ATOM     30  C   UNL     1      18.175   2.774  49.856  0.00  0.00    +0.000 A 
ATOM     31  N   UNL     1      19.094   3.133  50.827  0.00  0.00    +0.000 N 
ATOM     32  C   UNL     1      19.151   2.049  51.694  0.00  0.00    +0.000 A 
ATOM     33  N   UNL     1      19.984   1.849  52.734  0.00  0.00    +0.000 NA
BRANCH  31  34
ATOM     34  C   UNL     1      19.877   4.328  50.856  0.00  0.00    +0.000 A 
ATOM     35  C   UNL     1      21.050   4.408  51.626  0.00  0.00    +0.000 A 
ATOM     36  C   UNL     1      21.846   5.557  51.587  0.00  0.00    +0.000 A 
ATOM     37  C   UNL     1      21.507   6.606  50.742  0.00  0.00    +0.000 A 
ATOM     38  F   UNL     1      22.316   7.674  50.679  0.00  0.00    +0.000 F 
ATOM     39  C   UNL     1      20.360   6.532  49.960  0.00  0.00    +0.000 A 
ATOM     40 BR   UNL     1      19.987   7.868  48.673  0.00  0.00    +0.000 Br
ATOM     41  C   UNL     1      19.514   5.423  50.053  0.00  0.00    +0.000 A 
ENDBRANCH  31  34
ENDBRANCH  24  25
ENDBRANCH  23  24
ENDBRANCH   3  23
TORSDOF 11
ENDMDL
MODEL 3
REMARK VINA RESULT:    -8.531      1.611      3.153
REMARK INTER + INTRA:         -15.154
REMARK INTER:                 -13.280
REMARK INTRA:                  -1.874
REMARK UNBOUND:                -1.137
REMARK  Name = 
REMARK  15 active torsions:
REMARK  status: ('A' for Active; 'I' for Inactive)
REMARK    1  A    between atoms: C_2  and  C_3
REMARK    2  A    between atoms: N_5  and  C_6
REMARK    3  A    between atoms: C_8  and  S_9
REMARK    4  A    between atoms: S_9  and  C_10
REMARK    5  A    between atoms: C_10  and  C_11
REMARK    6  A    between atoms: N_17  and  C_18
REMARK    7  A    between atoms: C_28  and  O_29
REMARK    8  A    between atoms: O_29  and  C_30
REMARK    9  A    between atoms: C_32  and  N_33
REMARK   10  A    between atoms: N_33  and  C_34
REMARK   11  A    between atoms: N_33  and  C_35
REMARK   12  A    between atoms: C_35  and  C_36
REMARK   13  A    between atoms: C_36  and  N_37
REMARK   14  A    between atoms: N_37  and  C_38
REMARK   15  A    between atoms: N_37  and  C_39
REMARK                            x       y       z     vdW  Elec       q    Type
REMARK                         _______ _______ _______ _____ _____    ______ ____
ROOT
ATOM      1  C   UNL     1      24.604   6.909  48.248  0.00  0.00    +0.000 A 
ATOM      2  C   UNL     1      23.700   5.824  48.334  0.00  0.00    +0.000 A 
ATOM      3  C   UNL     1      23.893   4.761  49.224  0.00  0.00    +0.000 A 
ATOM      4  C   UNL     1      25.073   4.773  49.984  0.00  0.00    +0.000 A 
ATOM      5  C   UNL     1      25.982   5.845  49.865  0.00  0.00    +0.000 A 
ATOM      6  C   UNL     1      25.775   6.967  49.040  0.00  0.00    +0.000 A 
ENDROOT
BRANCH   1   9
ATOM      7  C   UNL     1      23.582   9.120  47.597  0.00  0.00    +0.000 C 
ATOM      8  O   UNL     1      23.604  10.000  46.732  0.00  0.00    +0.000 OA
ATOM      9  N   UNL     1      24.277   7.977  47.396  0.00  0.00    +0.000 N 
ATOM     10  H   UNL     1      24.620   7.874  46.479  0.00  0.00    +0.000 HD
BRANCH   7  12
ATOM     11  C   UNL     1      21.386   9.271  48.610  0.00  0.00    +0.000 C 
ATOM     12  C   UNL     1      22.714   9.233  48.785  0.00  0.00    +0.000 C 
ENDBRANCH   7  12
ENDBRANCH   1   9
BRANCH   4  13
ATOM     13  O   UNL     1      25.543   3.765  50.794  0.00  0.00    +0.000 OA
ATOM     14  C   UNL     1      26.468   2.837  50.234  0.00  0.00    +0.000 C 
ENDBRANCH   4  13
BRANCH   6  15
ATOM     15  N   UNL     1      26.717   7.993  48.980  0.00  0.00    +0.000 N 
ATOM     16  C   UNL     1      26.795   9.026  50.004  0.00  0.00    +0.000 C 
BRANCH  15  17
ATOM     17  C   UNL     1      27.885   7.945  48.073  0.00  0.00    +0.000 C 
BRANCH  17  18
ATOM     18  C   UNL     1      29.231   8.279  48.763  0.00  0.00    +0.000 C 
BRANCH  18  19
ATOM     19  N   UNL     1      29.947   7.035  49.125  0.00  0.00    +0.000 N 
ATOM     20  C   UNL     1      29.573   5.904  48.274  0.00  0.00    +0.000 C 
ATOM     21  C   UNL     1      31.399   7.206  49.119  0.00  0.00    +0.000 C 
ATOM     22  H   UNL     1      29.654   6.822  50.079  0.00  0.00    +0.000 HD
ENDBRANCH  18  19
ENDBRANCH  17  18
ENDBRANCH  15  17
ENDBRANCH   6  15
BRANCH   3  23
ATOM     23  S   UNL     1      22.710   3.413  49.256  0.00  0.00    +0.000 S 
BRANCH  23  24
ATOM     24  C   UNL     1      21.980   3.507  50.952  0.00  0.00    +0.000 C 
BRANCH  24  25
ATOM     25  C   UNL     1      22.017   2.148  51.626  0.00  0.00    +0.000 A 
ATOM     26  N   UNL     1      20.825   1.577  51.934  0.00  0.00    +0.000 NA
ATOM     27  C   UNL     1      20.817   0.462  52.707  0.00  0.00    +0.000 A 
ATOM     28  C   UNL     1      22.017  -0.040  53.195  0.00  0.00    +0.000 A 
ATOM     29  N   UNL     1      22.293  -1.043  54.082  0.00  0.00    +0.000 NA
ATOM     30  C   UNL     1      23.597  -0.993  54.240  0.00  0.00    +0.000 A 
ATOM     31  N   UNL     1      24.213  -0.050  53.432  0.00  0.00    +0.000 N 
ATOM     32  C   UNL     1      23.176   0.589  52.763  0.00  0.00    +0.000 A 
ATOM     33  N   UNL     1      23.237   1.666  51.955  0.00  0.00    +0.000 NA
BRANCH  31  34
ATOM     34  C   UNL     1      25.609   0.249  53.388  0.00  0.00    +0.000 A 
ATOM     35  C   UNL     1      26.081   1.547  53.648  0.00  0.00    +0.000 A 
ATOM     36  C   UNL     1      27.454   1.809  53.674  0.00  0.00    +0.000 A 
ATOM     37  C   UNL     1      28.361   0.773  53.496  0.00  0.00    +0.000 A 
ATOM     38  F   UNL     1      29.672   1.038  53.582  0.00  0.00    +0.000 F 
ATOM     39  C   UNL     1      27.908  -0.520  53.258  0.00  0.00    +0.000 A 
ATOM     40 BR   UNL     1      29.124  -1.968  53.198  0.00  0.00    +0.000 Br
ATOM     41  C   UNL     1      26.538  -0.778  53.148  0.00  0.00    +0.000 A 
ENDBRANCH  31  34
ENDBRANCH  24  25
ENDBRANCH  23  24
ENDBRANCH   3  23
TORSDOF 11
ENDMDL
MODEL 4
REMARK VINA RESULT:    -8.397      2.625      4.070
REMARK INTER + INTRA:         -14.933
REMARK INTER:                 -12.913
REMARK INTRA:                  -2.021
REMARK UNBOUND:                -1.137
REMARK  Name = 
REMARK  15 active torsions:
REMARK  status: ('A' for Active; 'I' for Inactive)
REMARK    1  A    between atoms: C_2  and  C_3
REMARK    2  A    between atoms: N_5  and  C_6
REMARK    3  A    between atoms: C_8  and  S_9
REMARK    4  A    between atoms: S_9  and  C_10
REMARK    5  A    between atoms: C_10  and  C_11
REMARK    6  A    between atoms: N_17  and  C_18
REMARK    7  A    between atoms: C_28  and  O_29
REMARK    8  A    between atoms: O_29  and  C_30
REMARK    9  A    between atoms: C_32  and  N_33
REMARK   10  A    between atoms: N_33  and  C_34
REMARK   11  A    between atoms: N_33  and  C_35
REMARK   12  A    between atoms: C_35  and  C_36
REMARK   13  A    between atoms: C_36  and  N_37
REMARK   14  A    between atoms: N_37  and  C_38
REMARK   15  A    between atoms: N_37  and  C_39
REMARK                            x       y       z     vdW  Elec       q    Type
REMARK                         _______ _______ _______ _____ _____    ______ ____
ROOT
ATOM      1  C   UNL     1      23.056   5.104  49.017  0.00  0.00    +0.000 A 
ATOM      2  C   UNL     1      22.717   3.772  49.354  0.00  0.00    +0.000 A 
ATOM      3  C   UNL     1      21.888   2.986  48.546  0.00  0.00    +0.000 A 
ATOM      4  C   UNL     1      21.337   3.601  47.410  0.00  0.00    +0.000 A 
ATOM      5  C   UNL     1      21.659   4.939  47.102  0.00  0.00    +0.000 A 
ATOM      6  C   UNL     1      22.553   5.729  47.852  0.00  0.00    +0.000 A 
ENDROOT
BRANCH   1   9
ATOM      7  C   UNL     1      25.322   5.867  49.820  0.00  0.00    +0.000 C 
ATOM      8  O   UNL     1      25.885   6.697  50.539  0.00  0.00    +0.000 OA
ATOM      9  N   UNL     1      23.971   5.782  49.839  0.00  0.00    +0.000 N 
ATOM     10  H   UNL     1      23.550   6.294  50.567  0.00  0.00    +0.000 HD
BRANCH   7  12
ATOM     11  C   UNL     1      26.497   3.755  49.641  0.00  0.00    +0.000 C 
ATOM     12  C   UNL     1      26.092   4.881  49.037  0.00  0.00    +0.000 C 
ENDBRANCH   7  12
ENDBRANCH   1   9
BRANCH   4  13
ATOM     13  O   UNL     1      20.382   3.078  46.570  0.00  0.00    +0.000 OA
ATOM     14  C   UNL     1      19.013   3.303  46.895  0.00  0.00    +0.000 C 
ENDBRANCH   4  13
BRANCH   6  15
ATOM     15  N   UNL     1      22.828   7.045  47.481  0.00  0.00    +0.000 N 
ATOM     16  C   UNL     1      24.060   7.408  46.795  0.00  0.00    +0.000 C 
BRANCH  15  17
ATOM     17  C   UNL     1      21.789   8.097  47.466  0.00  0.00    +0.000 C 
BRANCH  17  18
ATOM     18  C   UNL     1      21.659   8.870  48.803  0.00  0.00    +0.000 C 
BRANCH  18  19
ATOM     19  N   UNL     1      20.597   8.270  49.642  0.00  0.00    +0.000 N 
ATOM     20  C   UNL     1      21.131   7.603  50.830  0.00  0.00    +0.000 C 
ATOM     21  C   UNL     1      19.579   9.244  50.032  0.00  0.00    +0.000 C 
ATOM     22  H   UNL     1      20.155   7.563  49.055  0.00  0.00    +0.000 HD
ENDBRANCH  18  19
ENDBRANCH  17  18
ENDBRANCH  15  17
ENDBRANCH   6  15
BRANCH   3  23
ATOM     23  S   UNL     1      21.489   1.314  49.056  0.00  0.00    +0.000 S 
BRANCH  23  24
ATOM     24  C   UNL     1      20.382   1.551  50.518  0.00  0.00    +0.000 C 
BRANCH  24  25
ATOM     25  C   UNL     1      20.736   0.572  51.621  0.00  0.00    +0.000 A 
ATOM     26  N   UNL     1      19.706  -0.038  52.262  0.00  0.00    +0.000 NA
ATOM     27  C   UNL     1      19.971  -0.766  53.376  0.00  0.00    +0.000 A 
ATOM     28  C   UNL     1      21.274  -0.836  53.853  0.00  0.00    +0.000 A 
ATOM     29  N   UNL     1      21.800  -1.372  54.995  0.00  0.00    +0.000 NA
ATOM     30  C   UNL     1      23.073  -1.045  54.956  0.00  0.00    +0.000 A 
ATOM     31  N   UNL     1      23.435  -0.383  53.794  0.00  0.00    +0.000 N 
ATOM     32  C   UNL     1      22.253  -0.227  53.080  0.00  0.00    +0.000 A 
ATOM     33  N   UNL     1      22.046   0.462  51.941  0.00  0.00    +0.000 NA
BRANCH  31  34
ATOM     34  C   UNL     1      24.735   0.111  53.468  0.00  0.00    +0.000 A 
ATOM     35  C   UNL     1      24.983   1.491  53.372  0.00  0.00    +0.000 A 
ATOM     36  C   UNL     1      26.276   1.963  53.125  0.00  0.00    +0.000 A 
ATOM     37  C   UNL     1      27.333   1.067  53.026  0.00  0.00    +0.000 A 
ATOM     38  F   UNL     1      28.572   1.546  52.846  0.00  0.00    +0.000 F 
ATOM     39  C   UNL     1      27.105  -0.300  53.138  0.00  0.00    +0.000 A 
ATOM     40 BR   UNL     1      28.554  -1.515  53.191  0.00  0.00    +0.000 Br
ATOM     41  C   UNL     1      25.804  -0.786  53.303  0.00  0.00    +0.000 A 
ENDBRANCH  31  34
ENDBRANCH  24  25
ENDBRANCH  23  24
ENDBRANCH   3  23
TORSDOF 11
ENDMDL
MODEL 5
REMARK VINA RESULT:    -8.389      2.335      3.237
REMARK INTER + INTRA:         -14.921
REMARK INTER:                 -12.811
REMARK INTRA:                  -2.110
REMARK UNBOUND:                -1.137
REMARK  Name = 
REMARK  15 active torsions:
REMARK  status: ('A' for Active; 'I' for Inactive)
REMARK    1  A    between atoms: C_2  and  C_3
REMARK    2  A    between atoms: N_5  and  C_6
REMARK    3  A    between atoms: C_8  and  S_9
REMARK    4  A    between atoms: S_9  and  C_10
REMARK    5  A    between atoms: C_10  and  C_11
REMARK    6  A    between atoms: N_17  and  C_18
REMARK    7  A    between atoms: C_28  and  O_29
REMARK    8  A    between atoms: O_29  and  C_30
REMARK    9  A    between atoms: C_32  and  N_33
REMARK   10  A    between atoms: N_33  and  C_34
REMARK   11  A    between atoms: N_33  and  C_35
REMARK   12  A    between atoms: C_35  and  C_36
REMARK   13  A    between atoms: C_36  and  N_37
REMARK   14  A    between atoms: N_37  and  C_38
REMARK   15  A    between atoms: N_37  and  C_39
REMARK                            x       y       z     vdW  Elec       q    Type
REMARK                         _______ _______ _______ _____ _____    ______ ____
ROOT
ATOM      1  C   UNL     1      22.678   5.172  49.455  0.00  0.00    +0.000 A 
ATOM      2  C   UNL     1      22.450   3.790  49.659  0.00  0.00    +0.000 A 
ATOM      3  C   UNL     1      21.578   3.051  48.852  0.00  0.00    +0.000 A 
ATOM      4  C   UNL     1      20.871   3.757  47.865  0.00  0.00    +0.000 A 
ATOM      5  C   UNL     1      21.085   5.140  47.693  0.00  0.00    +0.000 A 
ATOM      6  C   UNL     1      22.014   5.894  48.436  0.00  0.00    +0.000 A 
ENDROOT
BRANCH   1   9
ATOM      7  C   UNL     1      24.982   5.951  50.123  0.00  0.00    +0.000 C 
ATOM      8  O   UNL     1      25.582   6.733  50.865  0.00  0.00    +0.000 OA
ATOM      9  N   UNL     1      23.643   5.808  50.254  0.00  0.00    +0.000 N 
ATOM     10  H   UNL     1      23.274   6.231  51.063  0.00  0.00    +0.000 HD
BRANCH   7  12
ATOM     11  C   UNL     1      26.373   4.018  49.669  0.00  0.00    +0.000 C 
ATOM     12  C   UNL     1      25.708   5.075  49.182  0.00  0.00    +0.000 C 
ENDBRANCH   7  12
ENDBRANCH   1   9
BRANCH   4  13
ATOM     13  O   UNL     1      19.857   3.273  47.072  0.00  0.00    +0.000 OA
ATOM     14  C   UNL     1      19.472   4.046  45.937  0.00  0.00    +0.000 C 
ENDBRANCH   4  13
BRANCH   6  15
ATOM     15  N   UNL     1      22.176   7.259  48.204  0.00  0.00    +0.000 N 
ATOM     16  C   UNL     1      21.384   8.258  48.909  0.00  0.00    +0.000 C 
BRANCH  15  17
ATOM     17  C   UNL     1      23.344   7.807  47.481  0.00  0.00    +0.000 C 
BRANCH  17  18
ATOM     18  C   UNL     1      24.022   9.002  48.197  0.00  0.00    +0.000 C 
BRANCH  18  19
ATOM     19  N   UNL     1      25.471   8.750  48.358  0.00  0.00    +0.000 N 
ATOM     20  C   UNL     1      26.097   8.259  47.130  0.00  0.00    +0.000 C 
ATOM     21  C   UNL     1      26.190   9.925  48.850  0.00  0.00    +0.000 C 
ATOM     22  H   UNL     1      25.541   8.015  49.063  0.00  0.00    +0.000 HD
ENDBRANCH  18  19
ENDBRANCH  17  18
ENDBRANCH  15  17
ENDBRANCH   6  15
BRANCH   3  23
ATOM     23  S   UNL     1      21.328   1.307  49.190  0.00  0.00    +0.000 S 
BRANCH  23  24
ATOM     24  C   UNL     1      20.063   1.298  50.539  0.00  0.00    +0.000 C 
BRANCH  24  25
ATOM     25  C   UNL     1      20.479   0.359  51.656  0.00  0.00    +0.000 A 
ATOM     26  N   UNL     1      19.488  -0.264  52.343  0.00  0.00    +0.000 NA
ATOM     27  C   UNL     1      19.809  -0.954  53.466  0.00  0.00    +0.000 A 
ATOM     28  C   UNL     1      21.126  -0.971  53.906  0.00  0.00    +0.000 A 
ATOM     29  N   UNL     1      21.701  -1.459  55.046  0.00  0.00    +0.000 NA
ATOM     30  C   UNL     1      22.962  -1.094  54.960  0.00  0.00    +0.000 A 
ATOM     31  N   UNL     1      23.269  -0.452  53.772  0.00  0.00    +0.000 N 
ATOM     32  C   UNL     1      22.063  -0.352  53.089  0.00  0.00    +0.000 A 
ATOM     33  N   UNL     1      21.800   0.299  51.939  0.00  0.00    +0.000 NA
BRANCH  31  34
ATOM     34  C   UNL     1      24.543   0.073  53.394  0.00  0.00    +0.000 A 
ATOM     35  C   UNL     1      24.729   1.452  53.200  0.00  0.00    +0.000 A 
ATOM     36  C   UNL     1      25.998   1.960  52.904  0.00  0.00    +0.000 A 
ATOM     37  C   UNL     1      27.092   1.106  52.852  0.00  0.00    +0.000 A 
ATOM     38  F   UNL     1      28.307   1.624  52.622  0.00  0.00    +0.000 F 
ATOM     39  C   UNL     1      26.924  -0.258  53.061  0.00  0.00    +0.000 A 
ATOM     40 BR   UNL     1      28.426  -1.404  53.176  0.00  0.00    +0.000 Br
ATOM     41  C   UNL     1      25.647  -0.787  53.276  0.00  0.00    +0.000 A 
ENDBRANCH  31  34
ENDBRANCH  24  25
ENDBRANCH  23  24
ENDBRANCH   3  23
TORSDOF 11
ENDMDL
MODEL 6
REMARK VINA RESULT:    -8.341      3.192      4.660
REMARK INTER + INTRA:         -14.841
REMARK INTER:                 -12.674
REMARK INTRA:                  -2.168
REMARK UNBOUND:                -1.137
REMARK  Name = 
REMARK  15 active torsions:
REMARK  status: ('A' for Active; 'I' for Inactive)
REMARK    1  A    between atoms: C_2  and  C_3
REMARK    2  A    between atoms: N_5  and  C_6
REMARK    3  A    between atoms: C_8  and  S_9
REMARK    4  A    between atoms: S_9  and  C_10
REMARK    5  A    between atoms: C_10  and  C_11
REMARK    6  A    between atoms: N_17  and  C_18
REMARK    7  A    between atoms: C_28  and  O_29
REMARK    8  A    between atoms: O_29  and  C_30
REMARK    9  A    between atoms: C_32  and  N_33
REMARK   10  A    between atoms: N_33  and  C_34
REMARK   11  A    between atoms: N_33  and  C_35
REMARK   12  A    between atoms: C_35  and  C_36
REMARK   13  A    between atoms: C_36  and  N_37
REMARK   14  A    between atoms: N_37  and  C_38
REMARK   15  A    between atoms: N_37  and  C_39
REMARK                            x       y       z     vdW  Elec       q    Type
REMARK                         _______ _______ _______ _____ _____    ______ ____
ROOT
ATOM      1  C   UNL     1      21.383   5.596  50.823  0.00  0.00    +0.000 A 
ATOM      2  C   UNL     1      20.654   4.519  51.380  0.00  0.00    +0.000 A 
ATOM      3  C   UNL     1      19.460   4.056  50.815  0.00  0.00    +0.000 A 
ATOM      4  C   UNL     1      18.966   4.759  49.704  0.00  0.00    +0.000 A 
ATOM      5  C   UNL     1      19.688   5.850  49.178  0.00  0.00    +0.000 A 
ATOM      6  C   UNL     1      20.931   6.288  49.675  0.00  0.00    +0.000 A 
ENDROOT
BRANCH   1   9
ATOM      7  C   UNL     1      23.896   5.699  51.016  0.00  0.00    +0.000 C 
ATOM      8  O   UNL     1      24.817   6.271  51.603  0.00  0.00    +0.000 OA
ATOM      9  N   UNL     1      22.620   5.928  51.403  0.00  0.00    +0.000 N 
ATOM     10  H   UNL     1      22.542   6.421  52.251  0.00  0.00    +0.000 HD
BRANCH   7  12
ATOM     11  C   UNL     1      25.355   4.666  49.379  0.00  0.00    +0.000 C 
ATOM     12  C   UNL     1      24.161   4.674  49.986  0.00  0.00    +0.000 C 
ENDBRANCH   7  12
ENDBRANCH   1   9
BRANCH   4  13
ATOM     13  O   UNL     1      17.747   4.584  49.092  0.00  0.00    +0.000 OA
ATOM     14  C   UNL     1      17.409   5.458  48.018  0.00  0.00    +0.000 C 
ENDBRANCH   4  13
BRANCH   6  15
ATOM     15  N   UNL     1      21.590   7.372  49.097  0.00  0.00    +0.000 N 
ATOM     16  C   UNL     1      22.308   7.253  47.836  0.00  0.00    +0.000 C 
BRANCH  15  17
ATOM     17  C   UNL     1      21.359   8.765  49.537  0.00  0.00    +0.000 C 
BRANCH  17  18
ATOM     18  C   UNL     1      20.720   9.669  48.452  0.00  0.00    +0.000 C 
BRANCH  18  19
ATOM     19  N   UNL     1      19.292   9.911  48.760  0.00  0.00    +0.000 N 
ATOM     20  C   UNL     1      18.394   9.117  47.921  0.00  0.00    +0.000 C 
ATOM     21  C   UNL     1      18.982   9.690  50.172  0.00  0.00    +0.000 C 
ATOM     22  H   UNL     1      19.133  10.896  48.549  0.00  0.00    +0.000 HD
ENDBRANCH  18  19
ENDBRANCH  17  18
ENDBRANCH  15  17
ENDBRANCH   6  15
BRANCH   3  23
ATOM     23  S   UNL     1      18.584   2.699  51.595  0.00  0.00    +0.000 S 
BRANCH  23  24
ATOM     24  C   UNL     1      19.293   1.195  50.788  0.00  0.00    +0.000 C 
BRANCH  24  25
ATOM     25  C   UNL     1      19.875   0.255  51.826  0.00  0.00    +0.000 A 
ATOM     26  N   UNL     1      19.001  -0.511  52.528  0.00  0.00    +0.000 NA
ATOM     27  C   UNL     1      19.462  -1.215  53.592  0.00  0.00    +0.000 A 
ATOM     28  C   UNL     1      20.797  -1.105  53.960  0.00  0.00    +0.000 A 
ATOM     29  N   UNL     1      21.488  -1.582  55.038  0.00  0.00    +0.000 NA
ATOM     30  C   UNL     1      22.693  -1.072  54.907  0.00  0.00    +0.000 A 
ATOM     31  N   UNL     1      22.857  -0.341  53.742  0.00  0.00    +0.000 N 
ATOM     32  C   UNL     1      21.609  -0.344  53.131  0.00  0.00    +0.000 A 
ATOM     33  N   UNL     1      21.209   0.331  52.035  0.00  0.00    +0.000 NA
BRANCH  31  34
ATOM     34  C   UNL     1      24.041   0.344  53.327  0.00  0.00    +0.000 A 
ATOM     35  C   UNL     1      24.019   1.719  53.038  0.00  0.00    +0.000 A 
ATOM     36  C   UNL     1      25.199   2.391  52.705  0.00  0.00    +0.000 A 
ATOM     37  C   UNL     1      26.410   1.711  52.713  0.00  0.00    +0.000 A 
ATOM     38  F   UNL     1      27.535   2.389  52.446  0.00  0.00    +0.000 F 
ATOM     39  C   UNL     1      26.448   0.355  53.016  0.00  0.00    +0.000 A 
ATOM     40 BR   UNL     1      28.104  -0.539  53.211  0.00  0.00    +0.000 Br
ATOM     41  C   UNL     1      25.264  -0.345  53.269  0.00  0.00    +0.000 A 
ENDBRANCH  31  34
ENDBRANCH  24  25
ENDBRANCH  23  24
ENDBRANCH   3  23
TORSDOF 11
ENDMDL
MODEL 7
REMARK VINA RESULT:    -8.317      2.526      3.762
REMARK INTER + INTRA:         -14.802
REMARK INTER:                 -12.928
REMARK INTRA:                  -1.874
REMARK UNBOUND:                -1.137
REMARK  Name = 
REMARK  15 active torsions:
REMARK  status: ('A' for Active; 'I' for Inactive)
REMARK    1  A    between atoms: C_2  and  C_3
REMARK    2  A    between atoms: N_5  and  C_6
REMARK    3  A    between atoms: C_8  and  S_9
REMARK    4  A    between atoms: S_9  and  C_10
REMARK    5  A    between atoms: C_10  and  C_11
REMARK    6  A    between atoms: N_17  and  C_18
REMARK    7  A    between atoms: C_28  and  O_29
REMARK    8  A    between atoms: O_29  and  C_30
REMARK    9  A    between atoms: C_32  and  N_33
REMARK   10  A    between atoms: N_33  and  C_34
REMARK   11  A    between atoms: N_33  and  C_35
REMARK   12  A    between atoms: C_35  and  C_36
REMARK   13  A    between atoms: C_36  and  N_37
REMARK   14  A    between atoms: N_37  and  C_38
REMARK   15  A    between atoms: N_37  and  C_39
REMARK                            x       y       z     vdW  Elec       q    Type
REMARK                         _______ _______ _______ _____ _____    ______ ____
ROOT
ATOM      1  C   UNL     1      21.170   5.820  48.941  0.00  0.00    +0.000 A 
ATOM      2  C   UNL     1      20.360   4.853  49.581  0.00  0.00    +0.000 A 
ATOM      3  C   UNL     1      20.591   4.440  50.898  0.00  0.00    +0.000 A 
ATOM      4  C   UNL     1      21.718   4.972  51.544  0.00  0.00    +0.000 A 
ATOM      5  C   UNL     1      22.536   5.913  50.883  0.00  0.00    +0.000 A 
ATOM      6  C   UNL     1      22.282   6.408  49.589  0.00  0.00    +0.000 A 
ENDROOT
BRANCH   1   9
ATOM      7  C   UNL     1      21.046   5.729  46.424  0.00  0.00    +0.000 C 
ATOM      8  O   UNL     1      20.439   6.182  45.449  0.00  0.00    +0.000 OA
ATOM      9  N   UNL     1      20.803   6.242  47.652  0.00  0.00    +0.000 N 
ATOM     10  H   UNL     1      20.268   7.068  47.641  0.00  0.00    +0.000 HD
BRANCH   7  12
ATOM     11  C   UNL     1      21.884   3.647  45.509  0.00  0.00    +0.000 C 
ATOM     12  C   UNL     1      22.120   4.730  46.263  0.00  0.00    +0.000 C 
ENDBRANCH   7  12
ENDBRANCH   1   9
BRANCH   4  13
ATOM     13  O   UNL     1      22.225   4.595  52.766  0.00  0.00    +0.000 OA
ATOM     14  C   UNL     1      23.617   4.793  53.000  0.00  0.00    +0.000 C 
ENDBRANCH   4  13
BRANCH   6  15
ATOM     15  N   UNL     1      23.133   7.344  49.002  0.00  0.00    +0.000 N 
ATOM     16  C   UNL     1      22.984   8.773  49.239  0.00  0.00    +0.000 C 
BRANCH  15  17
ATOM     17  C   UNL     1      24.412   6.961  48.366  0.00  0.00    +0.000 C 
BRANCH  17  18
ATOM     18  C   UNL     1      25.503   6.510  49.369  0.00  0.00    +0.000 C 
BRANCH  18  19
ATOM     19  N   UNL     1      26.021   5.173  48.998  0.00  0.00    +0.000 N 
ATOM     20  C   UNL     1      27.442   5.198  48.650  0.00  0.00    +0.000 C 
ATOM     21  C   UNL     1      25.778   4.174  50.037  0.00  0.00    +0.000 C 
ATOM     22  H   UNL     1      25.496   4.902  48.165  0.00  0.00    +0.000 HD
ENDBRANCH  18  19
ENDBRANCH  17  18
ENDBRANCH  15  17
ENDBRANCH   6  15
BRANCH   3  23
ATOM     23  S   UNL     1      19.531   3.192  51.630  0.00  0.00    +0.000 S 
BRANCH  23  24
ATOM     24  C   UNL     1      20.048   1.627  50.792  0.00  0.00    +0.000 C 
BRANCH  24  25
ATOM     25  C   UNL     1      20.449   0.580  51.814  0.00  0.00    +0.000 A 
ATOM     26  N   UNL     1      19.447  -0.070  52.460  0.00  0.00    +0.000 NA
ATOM     27  C   UNL     1      19.760  -0.867  53.512  0.00  0.00    +0.000 A 
ATOM     28  C   UNL     1      21.082  -0.966  53.926  0.00  0.00    +0.000 A 
ATOM     29  N   UNL     1      21.657  -1.572  55.008  0.00  0.00    +0.000 NA
ATOM     30  C   UNL     1      22.927  -1.240  54.934  0.00  0.00    +0.000 A 
ATOM     31  N   UNL     1      23.239  -0.505  53.802  0.00  0.00    +0.000 N 
ATOM     32  C   UNL     1      22.027  -0.307  53.152  0.00  0.00    +0.000 A 
ATOM     33  N   UNL     1      21.771   0.453  52.069  0.00  0.00    +0.000 NA
BRANCH  31  34
ATOM     34  C   UNL     1      24.524   0.011  53.451  0.00  0.00    +0.000 A 
ATOM     35  C   UNL     1      24.742   1.394  53.334  0.00  0.00    +0.000 A 
ATOM     36  C   UNL     1      26.022   1.888  53.063  0.00  0.00    +0.000 A 
ATOM     37  C   UNL     1      27.096   1.013  52.961  0.00  0.00    +0.000 A 
ATOM     38  F   UNL     1      28.322   1.514  52.757  0.00  0.00    +0.000 F 
ATOM     39  C   UNL     1      26.897  -0.357  53.093  0.00  0.00    +0.000 A 
ATOM     40 BR   UNL     1      28.371  -1.542  53.141  0.00  0.00    +0.000 Br
ATOM     41  C   UNL     1      25.608  -0.867  53.283  0.00  0.00    +0.000 A 
ENDBRANCH  31  34
ENDBRANCH  24  25
ENDBRANCH  23  24
ENDBRANCH   3  23
TORSDOF 11
ENDMDL
MODEL 8
REMARK VINA RESULT:    -7.833      3.073      8.125
REMARK INTER + INTRA:         -14.007
REMARK INTER:                 -11.806
REMARK INTRA:                  -2.201
REMARK UNBOUND:                -1.137
REMARK  Name = 
REMARK  15 active torsions:
REMARK  status: ('A' for Active; 'I' for Inactive)
REMARK    1  A    between atoms: C_2  and  C_3
REMARK    2  A    between atoms: N_5  and  C_6
REMARK    3  A    between atoms: C_8  and  S_9
REMARK    4  A    between atoms: S_9  and  C_10
REMARK    5  A    between atoms: C_10  and  C_11
REMARK    6  A    between atoms: N_17  and  C_18
REMARK    7  A    between atoms: C_28  and  O_29
REMARK    8  A    between atoms: O_29  and  C_30
REMARK    9  A    between atoms: C_32  and  N_33
REMARK   10  A    between atoms: N_33  and  C_34
REMARK   11  A    between atoms: N_33  and  C_35
REMARK   12  A    between atoms: C_35  and  C_36
REMARK   13  A    between atoms: C_36  and  N_37
REMARK   14  A    between atoms: N_37  and  C_38
REMARK   15  A    between atoms: N_37  and  C_39
REMARK                            x       y       z     vdW  Elec       q    Type
REMARK                         _______ _______ _______ _____ _____    ______ ____
ROOT
ATOM      1  C   UNL     1      19.285   3.848  50.909  0.00  0.00    +0.000 A 
ATOM      2  C   UNL     1      19.768   4.982  50.214  0.00  0.00    +0.000 A 
ATOM      3  C   UNL     1      20.766   4.889  49.237  0.00  0.00    +0.000 A 
ATOM      4  C   UNL     1      21.331   3.621  49.023  0.00  0.00    +0.000 A 
ATOM      5  C   UNL     1      20.861   2.504  49.745  0.00  0.00    +0.000 A 
ATOM      6  C   UNL     1      19.804   2.553  50.675  0.00  0.00    +0.000 A 
ENDROOT
BRANCH   1   9
ATOM      7  C   UNL     1      16.873   3.996  51.631  0.00  0.00    +0.000 C 
ATOM      8  O   UNL     1      16.137   3.984  52.621  0.00  0.00    +0.000 OA
ATOM      9  N   UNL     1      18.215   4.025  51.802  0.00  0.00    +0.000 N 
ATOM     10  H   UNL     1      18.495   4.204  52.728  0.00  0.00    +0.000 HD
BRANCH   7  12
ATOM     11  C   UNL     1      16.118   2.986  49.560  0.00  0.00    +0.000 C 
ATOM     12  C   UNL     1      16.321   4.107  50.266  0.00  0.00    +0.000 C 
ENDBRANCH   7  12
ENDBRANCH   1   9
BRANCH   4  13
ATOM     13  O   UNL     1      22.421   3.326  48.238  0.00  0.00    +0.000 OA
ATOM     14  C   UNL     1      22.542   1.996  47.739  0.00  0.00    +0.000 C 
ENDBRANCH   4  13
BRANCH   6  15
ATOM     15  N   UNL     1      19.390   1.404  51.347  0.00  0.00    +0.000 N 
ATOM     16  C   UNL     1      18.580   0.383  50.696  0.00  0.00    +0.000 C 
BRANCH  15  17
ATOM     17  C   UNL     1      19.982   0.983  52.635  0.00  0.00    +0.000 C 
BRANCH  17  18
ATOM     18  C   UNL     1      19.598  -0.456  53.062  0.00  0.00    +0.000 C 
BRANCH  18  19
ATOM     19  N   UNL     1      20.266  -0.809  54.336  0.00  0.00    +0.000 N 
ATOM     20  C   UNL     1      21.191  -1.934  54.192  0.00  0.00    +0.000 C 
ATOM     21  C   UNL     1      20.955   0.331  54.938  0.00  0.00    +0.000 C 
ATOM     22  H   UNL     1      19.515  -1.097  54.964  0.00  0.00    +0.000 HD
ENDBRANCH  18  19
ENDBRANCH  17  18
ENDBRANCH  15  17
ENDBRANCH   6  15
BRANCH   3  23
ATOM     23  S   UNL     1      21.338   6.378  48.417  0.00  0.00    +0.000 S 
BRANCH  23  24
ATOM     24  C   UNL     1      22.442   7.173  49.669  0.00  0.00    +0.000 C 
BRANCH  24  25
ATOM     25  C   UNL     1      23.871   6.689  49.507  0.00  0.00    +0.000 A 
ATOM     26  N   UNL     1      24.658   7.365  48.631  0.00  0.00    +0.000 NA
ATOM     27  C   UNL     1      25.872   6.849  48.314  0.00  0.00    +0.000 A 
ATOM     28  C   UNL     1      26.260   5.630  48.857  0.00  0.00    +0.000 A 
ATOM     29  N   UNL     1      27.341   4.828  48.619  0.00  0.00    +0.000 NA
ATOM     30  C   UNL     1      27.120   3.756  49.348  0.00  0.00    +0.000 A 
ATOM     31  N   UNL     1      25.977   3.844  50.125  0.00  0.00    +0.000 N 
ATOM     32  C   UNL     1      25.402   5.063  49.789  0.00  0.00    +0.000 A 
ATOM     33  N   UNL     1      24.211   5.564  50.174  0.00  0.00    +0.000 NA
BRANCH  31  34
ATOM     34  C   UNL     1      25.468   2.840  51.004  0.00  0.00    +0.000 A 
ATOM     35  C   UNL     1      24.102   2.786  51.328  0.00  0.00    +0.000 A 
ATOM     36  C   UNL     1      23.605   1.753  52.131  0.00  0.00    +0.000 A 
ATOM     37  C   UNL     1      24.454   0.745  52.567  0.00  0.00    +0.000 A 
ATOM     38  F   UNL     1      23.944  -0.264  53.288  0.00  0.00    +0.000 F 
ATOM     39  C   UNL     1      25.804   0.776  52.238  0.00  0.00    +0.000 A 
ATOM     40 BR   UNL     1      26.932  -0.681  52.668  0.00  0.00    +0.000 Br
ATOM     41  C   UNL     1      26.327   1.847  51.505  0.00  0.00    +0.000 A 
ENDBRANCH  31  34
ENDBRANCH  24  25
ENDBRANCH  23  24
ENDBRANCH   3  23
TORSDOF 11
ENDMDL
MODEL 9
REMARK VINA RESULT:    -7.831      4.566      9.177
REMARK INTER + INTRA:         -14.003
REMARK INTER:                 -11.551
REMARK INTRA:                  -2.453
REMARK UNBOUND:                -1.137
REMARK  Name = 
REMARK  15 active torsions:
REMARK  status: ('A' for Active; 'I' for Inactive)
REMARK    1  A    between atoms: C_2  and  C_3
REMARK    2  A    between atoms: N_5  and  C_6
REMARK    3  A    between atoms: C_8  and  S_9
REMARK    4  A    between atoms: S_9  and  C_10
REMARK    5  A    between atoms: C_10  and  C_11
REMARK    6  A    between atoms: N_17  and  C_18
REMARK    7  A    between atoms: C_28  and  O_29
REMARK    8  A    between atoms: O_29  and  C_30
REMARK    9  A    between atoms: C_32  and  N_33
REMARK   10  A    between atoms: N_33  and  C_34
REMARK   11  A    between atoms: N_33  and  C_35
REMARK   12  A    between atoms: C_35  and  C_36
REMARK   13  A    between atoms: C_36  and  N_37
REMARK   14  A    between atoms: N_37  and  C_38
REMARK   15  A    between atoms: N_37  and  C_39
REMARK                            x       y       z     vdW  Elec       q    Type
REMARK                         _______ _______ _______ _____ _____    ______ ____
ROOT
ATOM      1  C   UNL     1      19.152   1.553  51.482  0.00  0.00    +0.000 A 
ATOM      2  C   UNL     1      20.151   1.391  52.471  0.00  0.00    +0.000 A 
ATOM      3  C   UNL     1      20.192   0.273  53.312  0.00  0.00    +0.000 A 
ATOM      4  C   UNL     1      19.147  -0.657  53.188  0.00  0.00    +0.000 A 
ATOM      5  C   UNL     1      18.141  -0.467  52.219  0.00  0.00    +0.000 A 
ATOM      6  C   UNL     1      18.117   0.605  51.305  0.00  0.00    +0.000 A 
ENDROOT
BRANCH   1   9
ATOM      7  C   UNL     1      20.013   2.900  49.532  0.00  0.00    +0.000 C 
ATOM      8  O   UNL     1      19.765   3.879  48.823  0.00  0.00    +0.000 OA
ATOM      9  N   UNL     1      19.247   2.659  50.621  0.00  0.00    +0.000 N 
ATOM     10  H   UNL     1      18.641   3.399  50.854  0.00  0.00    +0.000 HD
BRANCH   7  12
ATOM     11  C   UNL     1      21.667   1.946  48.039  0.00  0.00    +0.000 C 
ATOM     12  C   UNL     1      21.202   2.059  49.291  0.00  0.00    +0.000 C 
ENDBRANCH   7  12
ENDBRANCH   1   9
BRANCH   4  13
ATOM     13  O   UNL     1      18.899  -1.734  54.007  0.00  0.00    +0.000 OA
ATOM     14  C   UNL     1      17.836  -2.613  53.648  0.00  0.00    +0.000 C 
ENDBRANCH   4  13
BRANCH   6  15
ATOM     15  N   UNL     1      17.090   0.723  50.369  0.00  0.00    +0.000 N 
ATOM     16  C   UNL     1      16.695  -0.389  49.517  0.00  0.00    +0.000 C 
BRANCH  15  17
ATOM     17  C   UNL     1      16.134   1.852  50.381  0.00  0.00    +0.000 C 
BRANCH  17  18
ATOM     18  C   UNL     1      15.432   2.067  51.745  0.00  0.00    +0.000 C 
BRANCH  18  19
ATOM     19  N   UNL     1      14.002   2.389  51.542  0.00  0.00    +0.000 N 
ATOM     20  C   UNL     1      13.124   1.643  52.444  0.00  0.00    +0.000 C 
ATOM     21  C   UNL     1      13.732   3.821  51.654  0.00  0.00    +0.000 C 
ATOM     22  H   UNL     1      13.792   2.098  50.586  0.00  0.00    +0.000 HD
ENDBRANCH  18  19
ENDBRANCH  17  18
ENDBRANCH  15  17
ENDBRANCH   6  15
BRANCH   3  23
ATOM     23  S   UNL     1      21.480   0.153  54.555  0.00  0.00    +0.000 S 
BRANCH  23  24
ATOM     24  C   UNL     1      22.612  -1.150  53.893  0.00  0.00    +0.000 C 
BRANCH  24  25
ATOM     25  C   UNL     1      23.856  -0.523  53.293  0.00  0.00    +0.000 A 
ATOM     26  N   UNL     1      25.044  -1.120  53.566  0.00  0.00    +0.000 NA
ATOM     27  C   UNL     1      26.189  -0.483  53.213  0.00  0.00    +0.000 A 
ATOM     28  C   UNL     1      26.120   0.772  52.622  0.00  0.00    +0.000 A 
ATOM     29  N   UNL     1      27.087   1.680  52.292  0.00  0.00    +0.000 NA
ATOM     30  C   UNL     1      26.420   2.728  51.863  0.00  0.00    +0.000 A 
ATOM     31  N   UNL     1      25.050   2.528  51.816  0.00  0.00    +0.000 N 
ATOM     32  C   UNL     1      24.851   1.254  52.333  0.00  0.00    +0.000 A 
ATOM     33  N   UNL     1      23.687   0.636  52.617  0.00  0.00    +0.000 NA
BRANCH  31  34
ATOM     34  C   UNL     1      24.065   3.481  51.411  0.00  0.00    +0.000 A 
ATOM     35  C   UNL     1      23.074   3.923  52.303  0.00  0.00    +0.000 A 
ATOM     36  C   UNL     1      22.162   4.910  51.916  0.00  0.00    +0.000 A 
ATOM     37  C   UNL     1      22.268   5.497  50.661  0.00  0.00    +0.000 A 
ATOM     38  F   UNL     1      21.418   6.480  50.334  0.00  0.00    +0.000 F 
ATOM     39  C   UNL     1      23.256   5.082  49.776  0.00  0.00    +0.000 A 
ATOM     40 BR   UNL     1      23.527   5.997  48.142  0.00  0.00    +0.000 Br
ATOM     41  C   UNL     1      24.120   4.039  50.122  0.00  0.00    +0.000 A 
ENDBRANCH  31  34
ENDBRANCH  24  25
ENDBRANCH  23  24
ENDBRANCH   3  23
TORSDOF 11
ENDMDL
