REMARK  Name = 
REMARK  10 active torsions:
REMARK  status: ('A' for Active; 'I' for Inactive)
REMARK    1  A    between atoms: C_1  and  N_2
REMARK    2  A    between atoms: N_2  and  C_3
REMARK    3  A    between atoms: N_2  and  C_4
REMARK    4  A    between atoms: C_4  and  C_5
REMARK    5  A    between atoms: C_6  and  C_7
REMARK    6  A    between atoms: C_19  and  N_20
REMARK    7  A    between atoms: N_20  and  CA_21
REMARK    8  A    between atoms: CA_21  and  C_22
REMARK    9  A    between atoms: CA_21  and  C_24
REMARK   10  A    between atoms: C_22  and  O_23
REMARK                            x       y       z     vdW  Elec       q    Type
REMARK                         _______ _______ _______ _____ _____    ______ ____
ROOT
ATOM      1  C   UNL     1      -6.999   4.614   1.586  0.00  0.00    +0.000 C 
ATOM      2  O   UNL     1      -7.116   3.686   2.388  0.00  0.00    +0.000 OA
ATOM      3  N   UNL     1      -6.882   5.929   2.013  0.00  0.00    +0.000 N 
ATOM      4  C   UNL     1      -6.766   6.163   3.462  0.00  0.00    +0.000 C 
ATOM      5  C   UNL     1      -5.276   6.305   3.868  0.00  0.00    +0.000 C 
ATOM      6  C   UNL     1      -4.552   7.230   2.914  0.00  0.00    +0.000 A 
ATOM      7  C   UNL     1      -5.165   7.579   1.713  0.00  0.00    +0.000 A 
ATOM      8  S   UNL     1      -4.259   8.696   0.818  0.00  0.00    +0.000 S 
ATOM      9  C   UNL     1      -2.977   8.630   1.935  0.00  0.00    +0.000 A 
ATOM     10  N   UNL     1      -1.876   9.350   1.678  0.00  0.00    +0.000 NA
ATOM     11  C   UNL     1      -0.931   9.165   2.592  0.00  0.00    +0.000 A 
ATOM     12  N   UNL     1      -0.985   8.367   3.664  0.00  0.00    +0.000 NA
ATOM     13  C   UNL     1      -2.112   7.660   3.924  0.00  0.00    +0.000 A 
ATOM     14  C   UNL     1      -3.209   7.792   3.021  0.00  0.00    +0.000 A 
ATOM     15  C   UNL     1      -6.496   7.090   1.205  0.00  0.00    +0.000 C 
ENDROOT
BRANCH   1  17
ATOM     16  C   UNL     1      -7.065   3.043  -0.308  0.00  0.00    +0.000 C 
ATOM     17  C   UNL     1      -6.987   4.316   0.123  0.00  0.00    +0.000 C 
BRANCH  16  18
ATOM     18  C   UNL     1      -7.041   2.627  -1.751  0.00  0.00    +0.000 C 
BRANCH  18  20
ATOM     19  C   UNL     1      -9.440   2.779  -2.108  0.00  0.00    +0.000 C 
ATOM     20  N   UNL     1      -8.259   1.913  -2.155  0.00  0.00    +0.000 N 
ATOM     21  C   UNL     1      -8.101   1.375  -3.510  0.00  0.00    +0.000 C 
ATOM     22  H   UNL     1      -8.400   1.150  -1.493  0.00  0.00    +0.000 HD
ENDBRANCH  18  20
ENDBRANCH  16  18
ENDBRANCH   1  17
BRANCH  13  23
ATOM     23  N   UNL     1      -2.126   6.822   5.043  0.00  0.00    +0.000 N 
ATOM     24  H   UNL     1      -2.971   6.479   5.413  0.00  0.00    +0.000 HD
BRANCH  23  25
ATOM     25  CA  UNL     1      -0.816   6.467   5.654  0.00  0.00    +0.000 C 
BRANCH  25  26
ATOM     26  C   UNL     1      -0.562   7.188   6.980  0.00  0.00    +0.000 A 
ATOM     27  C   UNL     1       0.670   7.820   7.232  0.00  0.00    +0.000 A 
ATOM     28  C   UNL     1       0.910   8.471   8.450  0.00  0.00    +0.000 A 
ATOM     29  C   UNL     1      -0.078   8.506   9.438  0.00  0.00    +0.000 A 
ATOM     30  C   UNL     1      -1.288   7.857   9.214  0.00  0.00    +0.000 A 
ATOM     31  C   UNL     1      -1.522   7.192   8.002  0.00  0.00    +0.000 A 
ENDBRANCH  25  26
BRANCH  25  32
ATOM     32  C   UNL     1      -0.737   4.924   5.825  0.00  0.00    +0.000 C 
BRANCH  32  33
ATOM     33  O   UNL     1      -1.751   4.399   6.687  0.00  0.00    +0.000 OA
ATOM     34  H   UNL     1      -2.625   4.584   6.308  0.00  0.00    +0.000 HD
ENDBRANCH  32  33
ENDBRANCH  25  32
ENDBRANCH  23  25
ENDBRANCH  13  23
TORSDOF 8
