REMARK  Name = 
REMARK  4 active torsions:
REMARK  status: ('A' for Active; 'I' for Inactive)
REMARK    1  A    between atoms: C_1  and  C_2
REMARK    2  A    between atoms: C_2  and  C_3
REMARK    3  A    between atoms: C_7  and  N_8
REMARK    4  A    between atoms: C_19  and  C_20
REMARK                            x       y       z     vdW  Elec       q    Type
REMARK                         _______ _______ _______ _____ _____    ______ ____
ROOT
ATOM      1  C   UNL     1       1.139  -0.038   0.372  0.00  0.00    +0.000 C 
ATOM      2  C   UNL     1       0.137  -1.112   0.787  0.00  0.00    +0.000 C 
ATOM      3  C   UNL     1      -0.929  -0.569   1.734  0.00  0.00    +0.000 C 
ATOM      4  O   UNL     1      -0.529  -1.584  -0.422  0.00  0.00    +0.000 OA
ATOM      5  C   UNL     1      -0.722  -3.009  -0.317  0.00  0.00    +0.000 C 
ATOM      6  C   UNL     1       0.329  -3.438   0.623  0.00  0.00    +0.000 A 
ATOM      7  C   UNL     1       0.832  -4.676   0.939  0.00  0.00    +0.000 A 
ATOM      8  N   UNL     1       1.657  -4.818   1.979  0.00  0.00    +0.000 NA
ATOM      9  C   UNL     1       2.030  -3.699   2.643  0.00  0.00    +0.000 A 
ATOM     10  N   UNL     1       1.636  -2.439   2.359  0.00  0.00    +0.000 NA
ATOM     11  C   UNL     1       0.785  -2.358   1.332  0.00  0.00    +0.000 A 
ENDROOT
BRANCH   7  12
ATOM     12  N   UNL     1       0.509  -5.771   0.125  0.00  0.00    +0.000 N 
ATOM     13  C   UNL     1       0.263  -7.055   0.461  0.00  0.00    +0.000 A 
ATOM     14  N   UNL     1       0.443  -8.050  -0.414  0.00  0.00    +0.000 NA
ATOM     15  N   UNL     1      -0.401  -9.004   0.001  0.00  0.00    +0.000 N 
ATOM     16  C   UNL     1      -1.223  -8.600   1.015  0.00  0.00    +0.000 A 
ATOM     17  C   UNL     1      -2.411  -9.121   1.517  0.00  0.00    +0.000 A 
ATOM     18  C   UNL     1      -3.029  -8.418   2.555  0.00  0.00    +0.000 A 
ATOM     19  C   UNL     1      -2.442  -7.282   3.112  0.00  0.00    +0.000 A 
ATOM     20  C   UNL     1      -1.259  -6.760   2.584  0.00  0.00    +0.000 A 
ATOM     21  C   UNL     1      -0.669  -7.406   1.475  0.00  0.00    +0.000 A 
ATOM     22  H   UNL     1       0.455  -5.574  -0.838  0.00  0.00    +0.000 HD
ATOM     23  H   UNL     1      -0.427  -9.909  -0.387  0.00  0.00    +0.000 HD
ENDBRANCH   7  12
BRANCH   9  24
ATOM     24  C   UNL     1       2.874  -3.869   3.804  0.00  0.00    +0.000 A 
ATOM     25  C   UNL     1       3.415  -2.905   4.687  0.00  0.00    +0.000 A 
ATOM     26  N   UNL     1       4.125  -3.451   5.670  0.00  0.00    +0.000 NA
ATOM     27  N   UNL     1       4.031  -4.776   5.430  0.00  0.00    +0.000 N 
ATOM     28  C   UNL     1       3.304  -5.076   4.318  0.00  0.00    +0.000 A 
ATOM     29  H   UNL     1       4.449  -5.459   6.003  0.00  0.00    +0.000 HD
ENDBRANCH   9  24
TORSDOF 2
