
     RDKit          3D

 86 92  0  0  0  0  0  0  0  0999 V2000
   -5.4300    0.3778   -5.1385 C   0  0  0  0  0  0  0  0  0  0  0  0
   -6.0661    0.1923   -3.8747 O   0  0  0  0  0  0  0  0  0  0  0  0
   -5.4264    0.3218   -2.6284 C   0  0  0  0  0  0  0  0  0  0  0  0
   -4.0518    0.6149   -2.5365 C   0  0  0  0  0  0  0  0  0  0  0  0
   -3.4268    0.7266   -1.2927 C   0  0  0  0  0  0  0  0  0  0  0  0
   -4.1542    0.5279   -0.1116 C   0  0  0  0  0  0  0  0  0  0  0  0
   -3.5188    0.6547    1.2206 C   0  0  0  0  0  0  0  0  0  0  0  0
   -4.1840    1.1290    2.3062 N   0  0  0  0  0  0  0  0  0  0  0  0
   -3.2660    1.0865    3.2893 C   0  0  0  0  0  0  0  0  0  0  0  0
   -3.4888    1.4491    4.6157 C   0  0  0  0  0  0  0  0  0  0  0  0
   -2.4294    1.2899    5.5202 C   0  0  0  0  0  0  0  0  0  0  0  0
   -1.1928    0.7749    5.0841 C   0  0  0  0  0  0  0  0  0  0  0  0
   -1.0231    0.4290    3.7348 C   0  0  0  0  0  0  0  0  0  0  0  0
   -2.0713    0.6136    2.8877 N   0  0  0  0  0  0  0  0  0  0  0  0
   -2.2071    0.3322    1.5790 C   0  0  0  0  0  0  0  0  0  0  0  0
   -1.1706   -0.3169    0.7535 C   0  0  0  0  0  0  0  0  0  0  0  0
   -1.4379   -1.4913    0.0437 C   0  0  0  0  0  0  0  0  0  0  0  0
   -0.4058   -2.0755   -0.6906 C   0  0  0  0  0  0  0  0  0  0  0  0
    0.8225   -1.4994   -0.7103 N   0  0  0  0  0  0  0  0  0  0  0  0
    1.0680   -0.3459   -0.0313 C   0  0  0  0  0  0  0  0  0  0  0  0
    2.3650    0.2678   -0.0650 N   0  0  0  0  0  0  0  0  0  0  0  0
    3.5412   -0.3887   -0.5615 C   0  0  0  0  0  0  0  0  0  0  0  0
    3.5335   -0.9080   -1.8659 C   0  0  0  0  0  0  0  0  0  0  0  0
    4.6511   -1.5518   -2.3784 C   0  0  0  0  0  0  0  0  0  0  0  0
    5.8054   -1.6608   -1.6101 C   0  0  0  0  0  0  0  0  0  0  0  0
    5.8755   -1.0989   -0.3240 C   0  0  0  0  0  0  0  0  0  0  0  0
    7.2081   -1.1703    0.4167 C   0  0  0  0  0  0  0  0  0  0  0  0
    8.2671   -0.2730   -0.1192 N   0  0  0  0  0  0  0  0  0  0  0  0
    9.3006   -0.9999   -0.8877 C   0  0  0  0  0  0  0  0  0  0  0  0
   10.2634   -0.0393   -1.6239 C   0  0  0  0  0  0  0  0  0  0  0  0
   10.3035    1.3037   -1.0110 N   0  0  0  0  0  0  0  0  0  0  0  0
   10.9486    1.2875    0.3191 C   0  0  0  0  0  0  0  0  0  0  0  0
    8.9677    1.9435   -0.9716 C   0  0  0  0  0  0  0  0  0  0  0  0
    7.8043    0.9386   -0.8223 C   0  0  0  0  0  0  0  0  0  0  0  0
    4.7220   -0.4703    0.2233 C   0  0  0  0  0  0  0  0  0  0  0  0
    4.7444    0.0521    1.6417 C   0  0  0  0  0  0  0  0  0  0  0  0
    0.0730    0.2271    0.6978 N   0  0  0  0  0  0  0  0  0  0  0  0
   -5.5265    0.2613   -0.1964 C   0  0  0  0  0  0  0  0  0  0  0  0
   -6.1768    0.1527   -1.4409 C   0  0  0  0  0  0  0  0  0  0  0  0
   -7.6411   -0.1153   -1.4786 C   0  0  0  0  0  0  0  0  0  0  0  0
   -8.3042    0.1377   -2.5202 O   0  0  0  0  0  0  0  0  0  0  0  0
   -8.3099   -0.6889   -0.3423 N   0  0  0  0  0  0  0  0  0  0  0  0
   -9.7201   -0.5372   -0.0947 C   0  0  0  0  0  0  0  0  0  0  0  0
  -10.4475   -1.6130    0.4467 C   0  0  0  0  0  0  0  0  0  0  0  0
   -9.8346   -2.7917    0.7065 F   0  0  0  0  0  0  0  0  0  0  0  0
  -11.8115   -1.4747    0.7228 C   0  0  0  0  0  0  0  0  0  0  0  0
  -12.4564   -0.2640    0.4681 C   0  0  0  0  0  0  0  0  0  0  0  0
  -11.7401    0.8183   -0.0406 C   0  0  0  0  0  0  0  0  0  0  0  0
  -10.3749    0.6903   -0.3140 C   0  0  0  0  0  0  0  0  0  0  0  0
   -9.6922    1.7820   -0.7432 F   0  0  0  0  0  0  0  0  0  0  0  0
   -6.1732    0.2109   -5.9442 H   0  0  0  0  0  0  0  0  0  0  0  0
   -4.6013   -0.3572   -5.2544 H   0  0  0  0  0  0  0  0  0  0  0  0
   -5.0427    1.4165   -5.2216 H   0  0  0  0  0  0  0  0  0  0  0  0
   -3.4550    0.7756   -3.4247 H   0  0  0  0  0  0  0  0  0  0  0  0
   -2.3799    1.0020   -1.2537 H   0  0  0  0  0  0  0  0  0  0  0  0
   -4.4461    1.8367    4.9392 H   0  0  0  0  0  0  0  0  0  0  0  0
   -2.5628    1.5645    6.5590 H   0  0  0  0  0  0  0  0  0  0  0  0
   -0.3831    0.6453    5.7875 H   0  0  0  0  0  0  0  0  0  0  0  0
   -0.0840    0.0170    3.3906 H   0  0  0  0  0  0  0  0  0  0  0  0
   -2.4212   -1.9460    0.0679 H   0  0  0  0  0  0  0  0  0  0  0  0
   -0.5782   -2.9881   -1.2459 H   0  0  0  0  0  0  0  0  0  0  0  0
    2.4708    1.2104    0.3721 H   0  0  0  0  0  0  0  0  0  0  0  0
    2.6590   -0.8069   -2.4944 H   0  0  0  0  0  0  0  0  0  0  0  0
    4.6288   -1.9567   -3.3822 H   0  0  0  0  0  0  0  0  0  0  0  0
    6.6584   -2.1739   -2.0385 H   0  0  0  0  0  0  0  0  0  0  0  0
    7.0971   -0.9366    1.4957 H   0  0  0  0  0  0  0  0  0  0  0  0
    7.5511   -2.2314    0.4175 H   0  0  0  0  0  0  0  0  0  0  0  0
    8.8449   -1.6876   -1.6329 H   0  0  0  0  0  0  0  0  0  0  0  0
    9.8985   -1.6152   -0.1800 H   0  0  0  0  0  0  0  0  0  0  0  0
   11.2821   -0.4796   -1.6597 H   0  0  0  0  0  0  0  0  0  0  0  0
    9.9411    0.0680   -2.6871 H   0  0  0  0  0  0  0  0  0  0  0  0
   11.9287    0.7669    0.2711 H   0  0  0  0  0  0  0  0  0  0  0  0
   10.3137    0.7831    1.0854 H   0  0  0  0  0  0  0  0  0  0  0  0
   11.1547    2.3329    0.6512 H   0  0  0  0  0  0  0  0  0  0  0  0
    8.8251    2.5098   -1.9182 H   0  0  0  0  0  0  0  0  0  0  0  0
    8.9158    2.6909   -0.1485 H   0  0  0  0  0  0  0  0  0  0  0  0
    7.4117    0.6733   -1.8343 H   0  0  0  0  0  0  0  0  0  0  0  0
    6.9864    1.4326   -0.2491 H   0  0  0  0  0  0  0  0  0  0  0  0
    3.7772    0.4557    1.9963 H   0  0  0  0  0  0  0  0  0  0  0  0
    4.9935   -0.7751    2.3372 H   0  0  0  0  0  0  0  0  0  0  0  0
    5.5000    0.8593    1.7376 H   0  0  0  0  0  0  0  0  0  0  0  0
   -6.0914    0.1530    0.7189 H   0  0  0  0  0  0  0  0  0  0  0  0
   -7.7778   -1.3700    0.2410 H   0  0  0  0  0  0  0  0  0  0  0  0
  -12.3707   -2.3011    1.1396 H   0  0  0  0  0  0  0  0  0  0  0  0
  -13.5104   -0.1550    0.6830 H   0  0  0  0  0  0  0  0  0  0  0  0
  -12.2390    1.7680   -0.2070 H   0  0  0  0  0  0  0  0  0  0  0  0
  1  2  1  0
  2  3  1  0
  3  4  2  0
  4  5  1  0
  5  6  2  0
  6  7  1  0
  7  8  1  0
  8  9  2  0
  9 10  1  0
 10 11  2  0
 11 12  1  0
 12 13  2  0
 13 14  1  0
 14 15  1  0
 15 16  1  0
 16 17  2  0
 17 18  1  0
 18 19  2  0
 19 20  1  0
 20 21  1  0
 21 22  1  0
 22 23  2  0
 23 24  1  0
 24 25  2  0
 25 26  1  0
 26 27  1  0
 27 28  1  0
 28 29  1  0
 29 30  1  0
 30 31  1  0
 31 32  1  0
 31 33  1  0
 33 34  1  0
 26 35  2  0
 35 36  1  0
 20 37  2  0
  6 38  1  0
 38 39  2  0
 39 40  1  0
 40 41  2  0
 40 42  1  0
 42 43  1  0
 43 44  2  0
 44 45  1  0
 44 46  1  0
 46 47  2  0
 47 48  1  0
 48 49  2  0
 49 50  1  0
 39  3  1  0
 49 43  1  0
 15  7  2  0
 37 16  1  0
 14  9  1  0
 35 22  1  0
 34 28  1  0
  1 51  1  0
  1 52  1  0
  1 53  1  0
  4 54  1  0
  5 55  1  0
 10 56  1  0
 11 57  1  0
 12 58  1  0
 13 59  1  0
 17 60  1  0
 18 61  1  0
 21 62  1  0
 23 63  1  0
 24 64  1  0
 25 65  1  0
 27 66  1  0
 27 67  1  0
 29 68  1  0
 29 69  1  0
 30 70  1  0
 30 71  1  0
 32 72  1  0
 32 73  1  0
 32 74  1  0
 33 75  1  0
 33 76  1  0
 34 77  1  0
 34 78  1  0
 36 79  1  0
 36 80  1  0
 36 81  1  0
 38 82  1  0
 42 83  1  0
 46 84  1  0
 47 85  1  0
 48 86  1  0
M  END
