REMARK  Name = 
REMARK  8 active torsions:
REMARK  status: ('A' for Active; 'I' for Inactive)
REMARK    1  A    between atoms: C_1  and  O_2
REMARK    2  A    between atoms: O_2  and  C_3
REMARK    3  A    between atoms: C_5  and  C_6
REMARK    4  A    between atoms: C_17  and  N_18
REMARK    5  A    between atoms: C_25  and  O_26
REMARK    6  A    between atoms: O_26  and  C_27
REMARK    7  A    between atoms: C_28  and  O_29
REMARK    8  A    between atoms: O_29  and  C_30
REMARK                            x       y       z     vdW  Elec       q    Type
REMARK                         _______ _______ _______ _____ _____    ______ ____
ROOT
ATOM      1  C   UNL     1       0.977   0.062   2.445  0.00  0.00    +0.000 A 
ATOM      2  C   UNL     1       2.345  -0.271   2.501  0.00  0.00    +0.000 A 
ATOM      3  C   UNL     1       2.959  -0.668   3.705  0.00  0.00    +0.000 A 
ATOM      4  C   UNL     1       2.155  -0.799   4.840  0.00  0.00    +0.000 A 
ATOM      5  C   UNL     1       0.787  -0.529   4.781  0.00  0.00    +0.000 A 
ATOM      6  C   UNL     1       0.195  -0.008   3.622  0.00  0.00    +0.000 A 
ENDROOT
BRANCH   6   7
ATOM      7  N   UNL     1      -1.184   0.456   3.634  0.00  0.00    +0.000 N 
ATOM      8  C   UNL     1      -1.679   1.007   4.866  0.00  0.00    +0.000 A 
ATOM      9  N   UNL     1      -0.845   1.873   5.492  0.00  0.00    +0.000 NA
ATOM     10  C   UNL     1      -0.861   1.831   6.826  0.00  0.00    +0.000 A 
ATOM     11  N   UNL     1      -1.639   1.049   7.577  0.00  0.00    +0.000 NA
ATOM     12  C   UNL     1      -2.555   0.320   6.930  0.00  0.00    +0.000 A 
ATOM     13  C   UNL     1      -3.342  -0.541   7.672  0.00  0.00    +0.000 A 
ATOM     14  C   UNL     1      -4.344  -1.333   7.097  0.00  0.00    +0.000 A 
ATOM     15  C   UNL     1      -4.646  -1.161   5.741  0.00  0.00    +0.000 A 
ATOM     16  C   UNL     1      -3.780  -0.389   4.956  0.00  0.00    +0.000 A 
ATOM     17  C   UNL     1      -2.694   0.319   5.544  0.00  0.00    +0.000 A 
ATOM     18  H   UNL     1      -1.753   0.394   2.833  0.00  0.00    +0.000 HD
BRANCH  14  19
ATOM     19  O   UNL     1      -5.026  -2.281   7.817  0.00  0.00    +0.000 OA
ATOM     20  C   UNL     1      -4.361  -2.790   8.972  0.00  0.00    +0.000 C 
ENDBRANCH  14  19
BRANCH  15  21
ATOM     21  O   UNL     1      -5.694  -1.716   5.051  0.00  0.00    +0.000 OA
ATOM     22  C   UNL     1      -6.848  -2.076   5.811  0.00  0.00    +0.000 C 
ENDBRANCH  15  21
ENDBRANCH   6   7
BRANCH   3  23
ATOM     23  C   UNL     1       4.412  -0.920   3.755  0.00  0.00    +0.000 A 
ATOM     24  N   UNL     1       5.308  -0.331   2.986  0.00  0.00    +0.000 NA
ATOM     25  C   UNL     1       6.583  -0.797   3.288  0.00  0.00    +0.000 A 
ATOM     26  C   UNL     1       7.789  -0.390   2.679  0.00  0.00    +0.000 A 
ATOM     27  C   UNL     1       9.001  -0.978   3.067  0.00  0.00    +0.000 A 
ATOM     28  C   UNL     1       9.026  -1.957   4.055  0.00  0.00    +0.000 A 
ATOM     29  C   UNL     1       7.849  -2.364   4.686  0.00  0.00    +0.000 A 
ATOM     30  C   UNL     1       6.641  -1.771   4.284  0.00  0.00    +0.000 A 
ATOM     31  S   UNL     1       5.056  -2.078   4.858  0.00  0.00    +0.000 S 
ENDBRANCH   3  23
BRANCH   1  33
ATOM     32  C   UNL     1       1.085   0.582   0.127  0.00  0.00    +0.000 C 
ATOM     33  O   UNL     1       0.321   0.509   1.324  0.00  0.00    +0.000 OA
ENDBRANCH   1  33
TORSDOF 5
