
     RDKit          3D

 70 74  0  0  0  0  0  0  0  0999 V2000
   -0.5633   -4.1189   -2.8395 C   0  0  0  0  0  0  0  0  0  0  0  0
   -0.1101   -2.9687   -2.1325 O   0  0  0  0  0  0  0  0  0  0  0  0
   -0.9514   -2.0288   -1.5149 C   0  0  0  0  0  0  0  0  0  0  0  0
   -2.3518   -2.1631   -1.5295 C   0  0  0  0  0  0  0  0  0  0  0  0
   -3.1716   -1.2088   -0.9123 C   0  0  0  0  0  0  0  0  0  0  0  0
   -4.6022   -1.3720   -0.9359 N   0  0  0  0  0  0  0  0  0  0  0  0
   -5.2512   -1.8893    0.2717 C   0  0  0  0  0  0  0  0  0  0  0  0
   -5.3969   -1.1335   -2.1588 C   0  0  0  0  0  0  0  0  0  0  0  0
   -5.4115   -2.3780   -3.0525 C   0  0  0  0  0  0  0  0  0  0  0  0
   -4.9021    0.0930   -2.9388 C   0  0  0  0  0  0  0  0  0  0  0  0
   -2.5873   -0.1250   -0.2284 C   0  0  0  0  0  0  0  0  0  0  0  0
   -3.4178    0.8493    0.4271 N   0  0  0  0  0  0  0  0  0  0  0  0
   -3.1404    1.3684    1.7412 C   0  0  0  0  0  0  0  0  0  0  0  0
   -2.1070    0.9956    2.3609 O   0  0  0  0  0  0  0  0  0  0  0  0
   -4.0579    2.3322    2.3929 C   0  0  0  0  0  0  0  0  0  0  0  0
   -3.5611    3.2554    3.3281 C   0  0  0  0  0  0  0  0  0  0  0  0
   -4.4238    4.1603    3.9494 C   0  0  0  0  0  0  0  0  0  0  0  0
   -5.7836    4.1310    3.6405 C   0  0  0  0  0  0  0  0  0  0  0  0
   -6.2581    3.2233    2.7475 N   0  0  0  0  0  0  0  0  0  0  0  0
   -5.4390    2.3335    2.1244 C   0  0  0  0  0  0  0  0  0  0  0  0
   -1.1921    0.0226   -0.2383 C   0  0  0  0  0  0  0  0  0  0  0  0
   -0.3692   -0.9317   -0.8573 C   0  0  0  0  0  0  0  0  0  0  0  0
    1.0602   -0.7699   -0.8674 N   0  0  0  0  0  0  0  0  0  0  0  0
    1.8218   -0.3113    0.2589 C   0  0  0  0  0  0  0  0  0  0  0  0
    1.2446   -0.1728    1.4828 N   0  0  0  0  0  0  0  0  0  0  0  0
    1.9687    0.2368    2.5548 C   0  0  0  0  0  0  0  0  0  0  0  0
    3.3284    0.5099    2.4146 C   0  0  0  0  0  0  0  0  0  0  0  0
    3.9218    0.3484    1.1536 C   0  0  0  0  0  0  0  0  0  0  0  0
    5.3649    0.6140    0.9426 C   0  0  0  0  0  0  0  0  0  0  0  0
    6.2131    1.3255    1.7933 C   0  0  0  0  0  0  0  0  0  0  0  0
    7.4637    1.3754    1.2803 N   0  0  0  0  0  0  0  0  0  0  0  0
    8.6271    1.9965    1.9065 C   0  0  0  0  0  0  0  0  0  0  0  0
    7.4298    0.6935    0.1195 C   0  0  0  0  0  0  0  0  0  0  0  0
    8.4908    0.4436   -0.7560 C   0  0  0  0  0  0  0  0  0  0  0  0
    8.2298   -0.3139   -1.9100 C   0  0  0  0  0  0  0  0  0  0  0  0
    6.9330   -0.8072   -2.1621 C   0  0  0  0  0  0  0  0  0  0  0  0
    5.8828   -0.5473   -1.2640 C   0  0  0  0  0  0  0  0  0  0  0  0
    6.1627    0.2171   -0.1257 C   0  0  0  0  0  0  0  0  0  0  0  0
    3.1491   -0.0582    0.1110 N   0  0  0  0  0  0  0  0  0  0  0  0
   -1.1268   -4.7895   -2.1566 H   0  0  0  0  0  0  0  0  0  0  0  0
   -1.2047   -3.8141   -3.6937 H   0  0  0  0  0  0  0  0  0  0  0  0
    0.3147   -4.6708   -3.2335 H   0  0  0  0  0  0  0  0  0  0  0  0
   -2.8103   -3.0205   -1.9985 H   0  0  0  0  0  0  0  0  0  0  0  0
   -5.1573   -1.1555    1.0982 H   0  0  0  0  0  0  0  0  0  0  0  0
   -6.3301   -2.0866    0.0983 H   0  0  0  0  0  0  0  0  0  0  0  0
   -4.7709   -2.8435    0.5760 H   0  0  0  0  0  0  0  0  0  0  0  0
   -6.4508   -0.9201   -1.8708 H   0  0  0  0  0  0  0  0  0  0  0  0
   -6.1895   -2.2678   -3.8378 H   0  0  0  0  0  0  0  0  0  0  0  0
   -5.6505   -3.2801   -2.4501 H   0  0  0  0  0  0  0  0  0  0  0  0
   -4.4328   -2.5225   -3.5549 H   0  0  0  0  0  0  0  0  0  0  0  0
   -3.8575   -0.0501   -3.2877 H   0  0  0  0  0  0  0  0  0  0  0  0
   -5.5479    0.2634   -3.8267 H   0  0  0  0  0  0  0  0  0  0  0  0
   -4.9517    0.9991   -2.3013 H   0  0  0  0  0  0  0  0  0  0  0  0
   -4.3014    1.1292   -0.0497 H   0  0  0  0  0  0  0  0  0  0  0  0
   -2.5057    3.2843    3.5694 H   0  0  0  0  0  0  0  0  0  0  0  0
   -4.0413    4.8769    4.6646 H   0  0  0  0  0  0  0  0  0  0  0  0
   -6.4636    4.8254    4.1162 H   0  0  0  0  0  0  0  0  0  0  0  0
   -5.8778    1.6150    1.4462 H   0  0  0  0  0  0  0  0  0  0  0  0
   -0.7481    0.9043    0.2043 H   0  0  0  0  0  0  0  0  0  0  0  0
    1.5903   -1.0818   -1.7123 H   0  0  0  0  0  0  0  0  0  0  0  0
    1.4887    0.3443    3.5186 H   0  0  0  0  0  0  0  0  0  0  0  0
    3.8995    0.8209    3.2785 H   0  0  0  0  0  0  0  0  0  0  0  0
    5.9319    1.7888    2.7300 H   0  0  0  0  0  0  0  0  0  0  0  0
    8.3180    2.6142    2.7772 H   0  0  0  0  0  0  0  0  0  0  0  0
    9.3273    1.2084    2.2545 H   0  0  0  0  0  0  0  0  0  0  0  0
    9.1438    2.6529    1.1745 H   0  0  0  0  0  0  0  0  0  0  0  0
    9.4876    0.8148   -0.5554 H   0  0  0  0  0  0  0  0  0  0  0  0
    9.0304   -0.5257   -2.6071 H   0  0  0  0  0  0  0  0  0  0  0  0
    6.7458   -1.3953   -3.0513 H   0  0  0  0  0  0  0  0  0  0  0  0
    4.8981   -0.9450   -1.4609 H   0  0  0  0  0  0  0  0  0  0  0  0
  1  2  1  0
  2  3  1  0
  3  4  2  0
  4  5  1  0
  5  6  1  0
  6  7  1  0
  6  8  1  0
  8  9  1  0
  8 10  1  0
  5 11  2  0
 11 12  1  0
 12 13  1  0
 13 14  2  0
 13 15  1  0
 15 16  2  0
 16 17  1  0
 17 18  2  0
 18 19  1  0
 19 20  2  0
 11 21  1  0
 21 22  2  0
 22 23  1  0
 23 24  1  0
 24 25  2  0
 25 26  1  0
 26 27  2  0
 27 28  1  0
 28 29  1  0
 29 30  2  0
 30 31  1  0
 31 32  1  0
 31 33  1  0
 33 34  2  0
 34 35  1  0
 35 36  2  0
 36 37  1  0
 37 38  2  0
 28 39  2  0
 22  3  1  0
 39 24  1  0
 20 15  1  0
 38 29  1  0
 38 33  1  0
  1 40  1  0
  1 41  1  0
  1 42  1  0
  4 43  1  0
  7 44  1  0
  7 45  1  0
  7 46  1  0
  8 47  1  0
  9 48  1  0
  9 49  1  0
  9 50  1  0
 10 51  1  0
 10 52  1  0
 10 53  1  0
 12 54  1  0
 16 55  1  0
 17 56  1  0
 18 57  1  0
 20 58  1  0
 21 59  1  0
 23 60  1  0
 26 61  1  0
 27 62  1  0
 30 63  1  0
 32 64  1  0
 32 65  1  0
 32 66  1  0
 34 67  1  0
 35 68  1  0
 36 69  1  0
 37 70  1  0
M  END
