MODEL 1
REMARK VINA RESULT:    -9.094      0.000      0.000
REMARK INTER + INTRA:         -18.955
REMARK INTER:                 -14.942
REMARK INTRA:                  -4.014
REMARK UNBOUND:                -4.014
REMARK  Name = 
REMARK  15 active torsions:
REMARK  status: ('A' for Active; 'I' for Inactive)
REMARK    1  A    between atoms: C_1  and  C_2
REMARK    2  A    between atoms: C_2  and  C_3
REMARK    3  A    between atoms: C_3  and  N_4
REMARK    4  A    between atoms: C_7  and  C_8
REMARK    5  A    between atoms: C_10  and  O_11
REMARK    6  A    between atoms: O_11  and  C_12
REMARK    7  A    between atoms: C_13  and  N_14
REMARK    8  A    between atoms: C_19  and  C_20
REMARK    9  A    between atoms: C_21  and  C_22
REMARK   10  A    between atoms: C_25  and  O_26
REMARK   11  A    between atoms: O_26  and  C_27
REMARK   12  A    between atoms: C_27  and  C_28
REMARK   13  A    between atoms: C_29  and  C_30
REMARK   14  A    between atoms: N_32  and  C_33
REMARK   15  A    between atoms: C_51  and  C_52
REMARK                            x       y       z     vdW  Elec       q    Type
REMARK                         _______ _______ _______ _____ _____    ______ ____
ROOT
ATOM      1  C   UNL     1      14.586   2.536  51.305  0.00  0.00    +0.000 A 
ATOM      2  C   UNL     1      15.091   3.809  51.074  0.00  0.00    +0.000 A 
ATOM      3  N   UNL     1      14.576   4.717  51.984  0.00  0.00    +0.000 NA
ATOM      4  C   UNL     1      13.803   4.019  52.790  0.00  0.00    +0.000 A 
ATOM      5  C   UNL     1      13.056   4.417  53.937  0.00  0.00    +0.000 A 
ATOM      6  C   UNL     1      12.335   3.509  54.623  0.00  0.00    +0.000 A 
ATOM      7  C   UNL     1      12.319   2.110  54.231  0.00  0.00    +0.000 A 
ATOM      8  C   UNL     1      13.037   1.721  53.161  0.00  0.00    +0.000 A 
ATOM      9  N   UNL     1      13.770   2.671  52.428  0.00  0.00    +0.000 N 
ENDROOT
BRANCH   1  15
ATOM     10  N   UNL     1      18.134  -0.154  49.844  0.00  0.00    +0.000 N 
ATOM     11  C   UNL     1      16.759   0.066  49.909  0.00  0.00    +0.000 A 
ATOM     12  N   UNL     1      15.963  -0.926  49.484  0.00  0.00    +0.000 NA
ATOM     13  C   UNL     1      14.638  -0.775  49.701  0.00  0.00    +0.000 A 
ATOM     14  C   UNL     1      14.073   0.304  50.331  0.00  0.00    +0.000 A 
ATOM     15  C   UNL     1      14.960   1.281  50.681  0.00  0.00    +0.000 A 
ATOM     16  N   UNL     1      16.280   1.187  50.454  0.00  0.00    +0.000 NA
ATOM     17  H   UNL     1      18.425  -0.773  49.136  0.00  0.00    +0.000 HD
BRANCH  10  21
ATOM     18  C   UNL     1      21.382   1.057  52.335  0.00  0.00    +0.000 A 
ATOM     19  C   UNL     1      21.292   1.494  50.989  0.00  0.00    +0.000 A 
ATOM     20  C   UNL     1      20.218   1.184  50.174  0.00  0.00    +0.000 A 
ATOM     21  C   UNL     1      19.172   0.377  50.640  0.00  0.00    +0.000 A 
ATOM     22  C   UNL     1      19.215  -0.008  52.000  0.00  0.00    +0.000 A 
ATOM     23  C   UNL     1      20.290   0.337  52.859  0.00  0.00    +0.000 A 
ATOM     24  C   UNL     1      20.244  -0.140  54.288  0.00  0.00    +0.000 C 
BRANCH  18  28
ATOM     25  N   UNL     1      25.636   1.481  52.957  0.00  0.00    +0.000 N 
ATOM     26  C   UNL     1      24.977   0.328  53.588  0.00  0.00    +0.000 C 
ATOM     27  C   UNL     1      23.582   0.083  53.022  0.00  0.00    +0.000 C 
ATOM     28  C   UNL     1      22.681   1.329  53.080  0.00  0.00    +0.000 C 
ATOM     29  C   UNL     1      23.430   2.548  52.515  0.00  0.00    +0.000 C 
ATOM     30  C   UNL     1      24.822   2.697  53.132  0.00  0.00    +0.000 C 
ATOM     31  H   UNL     1      25.727   1.272  51.963  0.00  0.00    +0.000 HD
BRANCH  25  32
ATOM     32  C   UNL     1      26.986   1.704  53.507  0.00  0.00    +0.000 C 
BRANCH  32  34
ATOM     33  C   UNL     1      28.857   0.283  54.540  0.00  0.00    +0.000 C 
ATOM     34  C   UNL     1      27.992   0.555  53.319  0.00  0.00    +0.000 C 
ENDBRANCH  32  34
ENDBRANCH  25  32
ENDBRANCH  18  28
BRANCH  20  35
ATOM     35  O   UNL     1      20.337   1.694  48.906  0.00  0.00    +0.000 OA
ATOM     36  C   UNL     1      21.617   1.499  48.323  0.00  0.00    +0.000 C 
ENDBRANCH  20  35
ENDBRANCH  10  21
ENDBRANCH   1  15
BRANCH   2  37
ATOM     37  C   UNL     1      16.148   4.188  50.129  0.00  0.00    +0.000 A 
ATOM     38  C   UNL     1      15.746   4.376  48.813  0.00  0.00    +0.000 A 
ATOM     39  C   UNL     1      16.706   4.748  47.865  0.00  0.00    +0.000 A 
ATOM     40  C   UNL     1      18.084   4.918  48.198  0.00  0.00    +0.000 A 
ATOM     41  C   UNL     1      18.536   4.775  49.528  0.00  0.00    +0.000 A 
ATOM     42  C   UNL     1      17.522   4.387  50.465  0.00  0.00    +0.000 A 
BRANCH  41  43
ATOM     43  C   UNL     1      19.981   4.961  50.130  0.00  0.00    +0.000 C 
ATOM     44  O   UNL     1      20.151   4.640  51.305  0.00  0.00    +0.000 OA
ATOM     45  N   UNL     1      21.007   5.502  49.351  0.00  0.00    +0.000 N 
ATOM     46  H   UNL     1      20.745   5.690  48.421  0.00  0.00    +0.000 HD
BRANCH  45  47
ATOM     47  C   UNL     1      22.388   5.841  49.654  0.00  0.00    +0.000 A 
ATOM     48  C   UNL     1      23.556   5.083  49.505  0.00  0.00    +0.000 A 
ATOM     49  F   UNL     1      23.617   4.004  48.717  0.00  0.00    +0.000 F 
ATOM     50  C   UNL     1      24.759   5.453  50.165  0.00  0.00    +0.000 A 
ATOM     51  C   UNL     1      24.833   6.614  50.935  0.00  0.00    +0.000 A 
ATOM     52  C   UNL     1      23.748   7.477  50.927  0.00  0.00    +0.000 A 
ATOM     53  C   UNL     1      22.568   7.095  50.274  0.00  0.00    +0.000 A 
ATOM     54  F   UNL     1      21.558   7.978  50.251  0.00  0.00    +0.000 F 
ENDBRANCH  45  47
ENDBRANCH  41  43
BRANCH  40  55
ATOM     55  O   UNL     1      18.824   5.216  47.088  0.00  0.00    +0.000 OA
BRANCH  55  56
ATOM     56  C   UNL     1      19.399   4.115  46.394  0.00  0.00    +0.000 C 
ATOM     57  C   UNL     1      20.842   4.214  45.943  0.00  0.00    +0.000 C 
ENDBRANCH  55  56
ENDBRANCH  40  55
ENDBRANCH   2  37
TORSDOF 11
ENDMDL
MODEL 2
REMARK VINA RESULT:    -8.990      3.008      8.612
REMARK INTER + INTRA:         -18.785
REMARK INTER:                 -15.069
REMARK INTRA:                  -3.717
REMARK UNBOUND:                -4.014
REMARK  Name = 
REMARK  15 active torsions:
REMARK  status: ('A' for Active; 'I' for Inactive)
REMARK    1  A    between atoms: C_1  and  C_2
REMARK    2  A    between atoms: C_2  and  C_3
REMARK    3  A    between atoms: C_3  and  N_4
REMARK    4  A    between atoms: C_7  and  C_8
REMARK    5  A    between atoms: C_10  and  O_11
REMARK    6  A    between atoms: O_11  and  C_12
REMARK    7  A    between atoms: C_13  and  N_14
REMARK    8  A    between atoms: C_19  and  C_20
REMARK    9  A    between atoms: C_21  and  C_22
REMARK   10  A    between atoms: C_25  and  O_26
REMARK   11  A    between atoms: O_26  and  C_27
REMARK   12  A    between atoms: C_27  and  C_28
REMARK   13  A    between atoms: C_29  and  C_30
REMARK   14  A    between atoms: N_32  and  C_33
REMARK   15  A    between atoms: C_51  and  C_52
REMARK                            x       y       z     vdW  Elec       q    Type
REMARK                         _______ _______ _______ _____ _____    ______ ____
ROOT
ATOM      1  C   UNL     1      22.115   7.402  47.742  0.00  0.00    +0.000 A 
ATOM      2  C   UNL     1      23.168   7.646  48.614  0.00  0.00    +0.000 A 
ATOM      3  N   UNL     1      22.790   8.533  49.608  0.00  0.00    +0.000 NA
ATOM      4  C   UNL     1      21.521   8.801  49.386  0.00  0.00    +0.000 A 
ATOM      5  C   UNL     1      20.601   9.613  50.113  0.00  0.00    +0.000 A 
ATOM      6  C   UNL     1      19.325   9.730  49.695  0.00  0.00    +0.000 A 
ATOM      7  C   UNL     1      18.852   9.023  48.518  0.00  0.00    +0.000 A 
ATOM      8  C   UNL     1      19.708   8.239  47.836  0.00  0.00    +0.000 A 
ATOM      9  N   UNL     1      21.045   8.134  48.255  0.00  0.00    +0.000 N 
ENDROOT
BRANCH   1  15
ATOM     10  N   UNL     1      20.888   3.055  46.493  0.00  0.00    +0.000 N 
ATOM     11  C   UNL     1      21.493   4.263  46.150  0.00  0.00    +0.000 A 
ATOM     12  N   UNL     1      21.836   4.429  44.864  0.00  0.00    +0.000 NA
ATOM     13  C   UNL     1      22.269   5.658  44.506  0.00  0.00    +0.000 A 
ATOM     14  C   UNL     1      22.361   6.728  45.359  0.00  0.00    +0.000 A 
ATOM     15  C   UNL     1      22.037   6.444  46.655  0.00  0.00    +0.000 A 
ATOM     16  N   UNL     1      21.635   5.230  47.060  0.00  0.00    +0.000 NA
ATOM     17  H   UNL     1      21.138   2.288  45.930  0.00  0.00    +0.000 HD
BRANCH  10  21
ATOM     18  C   UNL     1      18.374   2.382  49.877  0.00  0.00    +0.000 A 
ATOM     19  C   UNL     1      17.883   3.043  48.722  0.00  0.00    +0.000 A 
ATOM     20  C   UNL     1      18.644   3.213  47.579  0.00  0.00    +0.000 A 
ATOM     21  C   UNL     1      19.971   2.767  47.526  0.00  0.00    +0.000 A 
ATOM     22  C   UNL     1      20.451   2.046  48.644  0.00  0.00    +0.000 A 
ATOM     23  C   UNL     1      19.668   1.828  49.806  0.00  0.00    +0.000 A 
ATOM     24  C   UNL     1      20.284   1.062  50.950  0.00  0.00    +0.000 C 
BRANCH  18  28
ATOM     25  N   UNL     1      14.785   2.730  52.254  0.00  0.00    +0.000 N 
ATOM     26  C   UNL     1      15.779   3.806  52.378  0.00  0.00    +0.000 C 
ATOM     27  C   UNL     1      16.812   3.766  51.257  0.00  0.00    +0.000 C 
ATOM     28  C   UNL     1      17.500   2.396  51.122  0.00  0.00    +0.000 C 
ATOM     29  C   UNL     1      16.447   1.276  51.106  0.00  0.00    +0.000 C 
ATOM     30  C   UNL     1      15.449   1.415  52.256  0.00  0.00    +0.000 C 
ATOM     31  H   UNL     1      14.299   2.865  51.368  0.00  0.00    +0.000 HD
BRANCH  25  32
ATOM     32  C   UNL     1      13.787   2.784  53.340  0.00  0.00    +0.000 C 
BRANCH  32  34
ATOM     33  C   UNL     1      12.106   4.377  54.446  0.00  0.00    +0.000 C 
ATOM     34  C   UNL     1      12.632   3.783  53.149  0.00  0.00    +0.000 C 
ENDBRANCH  32  34
ENDBRANCH  25  32
ENDBRANCH  18  28
BRANCH  20  35
ATOM     35  O   UNL     1      17.982   3.889  46.585  0.00  0.00    +0.000 OA
ATOM     36  C   UNL     1      17.727   5.253  46.886  0.00  0.00    +0.000 C 
ENDBRANCH  20  35
ENDBRANCH  10  21
ENDBRANCH   1  15
BRANCH   2  37
ATOM     37  C   UNL     1      24.472   6.972  48.644  0.00  0.00    +0.000 A 
ATOM     38  C   UNL     1      25.517   7.644  48.025  0.00  0.00    +0.000 A 
ATOM     39  C   UNL     1      26.787   7.058  48.029  0.00  0.00    +0.000 A 
ATOM     40  C   UNL     1      27.042   5.787  48.625  0.00  0.00    +0.000 A 
ATOM     41  C   UNL     1      26.021   5.081  49.299  0.00  0.00    +0.000 A 
ATOM     42  C   UNL     1      24.734   5.713  49.266  0.00  0.00    +0.000 A 
BRANCH  41  43
ATOM     43  C   UNL     1      26.081   3.703  50.065  0.00  0.00    +0.000 C 
ATOM     44  O   UNL     1      26.769   2.811  49.571  0.00  0.00    +0.000 OA
ATOM     45  N   UNL     1      25.347   3.514  51.239  0.00  0.00    +0.000 N 
ATOM     46  H   UNL     1      24.862   4.316  51.539  0.00  0.00    +0.000 HD
BRANCH  45  47
ATOM     47  C   UNL     1      25.164   2.358  52.101  0.00  0.00    +0.000 A 
ATOM     48  C   UNL     1      26.075   1.368  52.487  0.00  0.00    +0.000 A 
ATOM     49  F   UNL     1      27.399   1.528  52.380  0.00  0.00    +0.000 F 
ATOM     50  C   UNL     1      25.631   0.143  53.053  0.00  0.00    +0.000 A 
ATOM     51  C   UNL     1      24.278  -0.091  53.298  0.00  0.00    +0.000 A 
ATOM     52  C   UNL     1      23.387   0.954  53.110  0.00  0.00    +0.000 A 
ATOM     53  C   UNL     1      23.842   2.155  52.547  0.00  0.00    +0.000 A 
ATOM     54  F   UNL     1      22.957   3.157  52.424  0.00  0.00    +0.000 F 
ENDBRANCH  45  47
ENDBRANCH  41  43
BRANCH  40  55
ATOM     55  O   UNL     1      28.341   5.407  48.437  0.00  0.00    +0.000 OA
BRANCH  55  56
ATOM     56  C   UNL     1      29.278   6.449  48.187  0.00  0.00    +0.000 C 
ATOM     57  C   UNL     1      30.690   6.074  47.783  0.00  0.00    +0.000 C 
ENDBRANCH  55  56
ENDBRANCH  40  55
ENDBRANCH   2  37
TORSDOF 11
ENDMDL
MODEL 3
REMARK VINA RESULT:    -8.831      2.713      4.816
REMARK INTER + INTRA:         -18.523
REMARK INTER:                 -14.271
REMARK INTRA:                  -4.253
REMARK UNBOUND:                -4.014
REMARK  Name = 
REMARK  15 active torsions:
REMARK  status: ('A' for Active; 'I' for Inactive)
REMARK    1  A    between atoms: C_1  and  C_2
REMARK    2  A    between atoms: C_2  and  C_3
REMARK    3  A    between atoms: C_3  and  N_4
REMARK    4  A    between atoms: C_7  and  C_8
REMARK    5  A    between atoms: C_10  and  O_11
REMARK    6  A    between atoms: O_11  and  C_12
REMARK    7  A    between atoms: C_13  and  N_14
REMARK    8  A    between atoms: C_19  and  C_20
REMARK    9  A    between atoms: C_21  and  C_22
REMARK   10  A    between atoms: C_25  and  O_26
REMARK   11  A    between atoms: O_26  and  C_27
REMARK   12  A    between atoms: C_27  and  C_28
REMARK   13  A    between atoms: C_29  and  C_30
REMARK   14  A    between atoms: N_32  and  C_33
REMARK   15  A    between atoms: C_51  and  C_52
REMARK                            x       y       z     vdW  Elec       q    Type
REMARK                         _______ _______ _______ _____ _____    ______ ____
ROOT
ATOM      1  C   UNL     1      17.238   3.425  46.974  0.00  0.00    +0.000 A 
ATOM      2  C   UNL     1      18.231   4.138  46.315  0.00  0.00    +0.000 A 
ATOM      3  N   UNL     1      18.435   3.637  45.040  0.00  0.00    +0.000 NA
ATOM      4  C   UNL     1      17.561   2.664  44.893  0.00  0.00    +0.000 A 
ATOM      5  C   UNL     1      17.282   1.827  43.772  0.00  0.00    +0.000 A 
ATOM      6  C   UNL     1      16.316   0.891  43.851  0.00  0.00    +0.000 A 
ATOM      7  C   UNL     1      15.525   0.726  45.058  0.00  0.00    +0.000 A 
ATOM      8  C   UNL     1      15.768   1.525  46.115  0.00  0.00    +0.000 A 
ATOM      9  N   UNL     1      16.792   2.486  46.044  0.00  0.00    +0.000 N 
ENDROOT
BRANCH   1  15
ATOM     10  N   UNL     1      17.432   2.672  51.595  0.00  0.00    +0.000 N 
ATOM     11  C   UNL     1      16.740   3.199  50.506  0.00  0.00    +0.000 A 
ATOM     12  N   UNL     1      15.666   3.956  50.774  0.00  0.00    +0.000 NA
ATOM     13  C   UNL     1      15.099   4.596  49.729  0.00  0.00    +0.000 A 
ATOM     14  C   UNL     1      15.556   4.531  48.438  0.00  0.00    +0.000 A 
ATOM     15  C   UNL     1      16.622   3.696  48.259  0.00  0.00    +0.000 A 
ATOM     16  N   UNL     1      17.195   3.016  49.264  0.00  0.00    +0.000 NA
ATOM     17  H   UNL     1      16.888   2.516  52.400  0.00  0.00    +0.000 HD
BRANCH  10  21
ATOM     18  C   UNL     1      21.552   1.833  52.334  0.00  0.00    +0.000 A 
ATOM     19  C   UNL     1      20.626   0.787  52.085  0.00  0.00    +0.000 A 
ATOM     20  C   UNL     1      19.301   1.023  51.768  0.00  0.00    +0.000 A 
ATOM     21  C   UNL     1      18.796   2.329  51.718  0.00  0.00    +0.000 A 
ATOM     22  C   UNL     1      19.721   3.383  51.896  0.00  0.00    +0.000 A 
ATOM     23  C   UNL     1      21.093   3.156  52.180  0.00  0.00    +0.000 A 
ATOM     24  C   UNL     1      21.991   4.352  52.370  0.00  0.00    +0.000 C 
BRANCH  18  28
ATOM     25  N   UNL     1      25.141  -0.533  52.756  0.00  0.00    +0.000 N 
ATOM     26  C   UNL     1      24.245  -0.459  53.920  0.00  0.00    +0.000 C 
ATOM     27  C   UNL     1      22.871   0.090  53.552  0.00  0.00    +0.000 C 
ATOM     28  C   UNL     1      22.939   1.445  52.825  0.00  0.00    +0.000 C 
ATOM     29  C   UNL     1      23.963   1.378  51.680  0.00  0.00    +0.000 C 
ATOM     30  C   UNL     1      25.300   0.798  52.145  0.00  0.00    +0.000 C 
ATOM     31  H   UNL     1      24.713  -1.169  52.083  0.00  0.00    +0.000 HD
BRANCH  25  32
ATOM     32  C   UNL     1      26.465  -1.073  53.121  0.00  0.00    +0.000 C 
BRANCH  32  34
ATOM     33  C   UNL     1      28.255   0.317  54.326  0.00  0.00    +0.000 C 
ATOM     34  C   UNL     1      27.651  -0.101  52.994  0.00  0.00    +0.000 C 
ENDBRANCH  32  34
ENDBRANCH  25  32
ENDBRANCH  18  28
BRANCH  20  35
ATOM     35  O   UNL     1      18.577  -0.127  51.579  0.00  0.00    +0.000 OA
ATOM     36  C   UNL     1      18.270  -0.820  52.780  0.00  0.00    +0.000 C 
ENDBRANCH  20  35
ENDBRANCH  10  21
ENDBRANCH   1  15
BRANCH   2  37
ATOM     37  C   UNL     1      18.898   5.363  46.773  0.00  0.00    +0.000 A 
ATOM     38  C   UNL     1      18.248   6.554  46.477  0.00  0.00    +0.000 A 
ATOM     39  C   UNL     1      18.827   7.756  46.896  0.00  0.00    +0.000 A 
ATOM     40  C   UNL     1      20.071   7.804  47.595  0.00  0.00    +0.000 A 
ATOM     41  C   UNL     1      20.752   6.619  47.951  0.00  0.00    +0.000 A 
ATOM     42  C   UNL     1      20.128   5.411  47.497  0.00  0.00    +0.000 A 
BRANCH  41  43
ATOM     43  C   UNL     1      22.096   6.428  48.755  0.00  0.00    +0.000 C 
ATOM     44  O   UNL     1      22.152   6.911  49.885  0.00  0.00    +0.000 OA
ATOM     45  N   UNL     1      23.178   5.761  48.175  0.00  0.00    +0.000 N 
ATOM     46  H   UNL     1      22.990   5.400  47.279  0.00  0.00    +0.000 HD
BRANCH  45  47
ATOM     47  C   UNL     1      24.529   5.500  48.645  0.00  0.00    +0.000 A 
ATOM     48  C   UNL     1      25.696   6.261  48.504  0.00  0.00    +0.000 A 
ATOM     49  F   UNL     1      25.672   7.561  48.187  0.00  0.00    +0.000 F 
ATOM     50  C   UNL     1      26.976   5.688  48.730  0.00  0.00    +0.000 A 
ATOM     51  C   UNL     1      27.112   4.368  49.158  0.00  0.00    +0.000 A 
ATOM     52  C   UNL     1      25.965   3.666  49.496  0.00  0.00    +0.000 A 
ATOM     53  C   UNL     1      24.709   4.245  49.262  0.00  0.00    +0.000 A 
ATOM     54  F   UNL     1      23.626   3.551  49.645  0.00  0.00    +0.000 F 
ENDBRANCH  45  47
ENDBRANCH  41  43
BRANCH  40  55
ATOM     55  O   UNL     1      20.453   9.094  47.832  0.00  0.00    +0.000 OA
BRANCH  55  56
ATOM     56  C   UNL     1      19.654   9.834  48.749  0.00  0.00    +0.000 C 
ATOM     57  C   UNL     1      19.450   9.282  50.145  0.00  0.00    +0.000 C 
ENDBRANCH  55  56
ENDBRANCH  40  55
ENDBRANCH   2  37
TORSDOF 11
ENDMDL
MODEL 4
REMARK VINA RESULT:    -8.692      3.802      9.229
REMARK INTER + INTRA:         -18.295
REMARK INTER:                 -16.113
REMARK INTRA:                  -2.182
REMARK UNBOUND:                -4.014
REMARK  Name = 
REMARK  15 active torsions:
REMARK  status: ('A' for Active; 'I' for Inactive)
REMARK    1  A    between atoms: C_1  and  C_2
REMARK    2  A    between atoms: C_2  and  C_3
REMARK    3  A    between atoms: C_3  and  N_4
REMARK    4  A    between atoms: C_7  and  C_8
REMARK    5  A    between atoms: C_10  and  O_11
REMARK    6  A    between atoms: O_11  and  C_12
REMARK    7  A    between atoms: C_13  and  N_14
REMARK    8  A    between atoms: C_19  and  C_20
REMARK    9  A    between atoms: C_21  and  C_22
REMARK   10  A    between atoms: C_25  and  O_26
REMARK   11  A    between atoms: O_26  and  C_27
REMARK   12  A    between atoms: C_27  and  C_28
REMARK   13  A    between atoms: C_29  and  C_30
REMARK   14  A    between atoms: N_32  and  C_33
REMARK   15  A    between atoms: C_51  and  C_52
REMARK                            x       y       z     vdW  Elec       q    Type
REMARK                         _______ _______ _______ _____ _____    ______ ____
ROOT
ATOM      1  C   UNL     1      25.296   7.359  47.460  0.00  0.00    +0.000 A 
ATOM      2  C   UNL     1      25.680   6.627  48.576  0.00  0.00    +0.000 A 
ATOM      3  N   UNL     1      27.059   6.569  48.677  0.00  0.00    +0.000 NA
ATOM      4  C   UNL     1      27.523   7.282  47.674  0.00  0.00    +0.000 A 
ATOM      5  C   UNL     1      28.862   7.610  47.307  0.00  0.00    +0.000 A 
ATOM      6  C   UNL     1      29.098   8.380  46.227  0.00  0.00    +0.000 A 
ATOM      7  C   UNL     1      28.007   8.910  45.428  0.00  0.00    +0.000 A 
ATOM      8  C   UNL     1      26.739   8.622  45.778  0.00  0.00    +0.000 A 
ATOM      9  N   UNL     1      26.490   7.799  46.890  0.00  0.00    +0.000 N 
ENDROOT
BRANCH   1  15
ATOM     10  N   UNL     1      20.964   5.956  46.355  0.00  0.00    +0.000 N 
ATOM     11  C   UNL     1      21.890   6.994  46.441  0.00  0.00    +0.000 A 
ATOM     12  N   UNL     1      21.431   8.237  46.240  0.00  0.00    +0.000 NA
ATOM     13  C   UNL     1      22.293   9.249  46.486  0.00  0.00    +0.000 A 
ATOM     14  C   UNL     1      23.578   9.082  46.933  0.00  0.00    +0.000 A 
ATOM     15  C   UNL     1      23.966   7.778  47.059  0.00  0.00    +0.000 A 
ATOM     16  N   UNL     1      23.154   6.744  46.794  0.00  0.00    +0.000 NA
ATOM     17  H   UNL     1      20.199   6.126  45.759  0.00  0.00    +0.000 HD
BRANCH  10  21
ATOM     18  C   UNL     1      21.125   2.336  48.612  0.00  0.00    +0.000 A 
ATOM     19  C   UNL     1      19.894   2.828  48.108  0.00  0.00    +0.000 A 
ATOM     20  C   UNL     1      19.812   3.955  47.310  0.00  0.00    +0.000 A 
ATOM     21  C   UNL     1      20.957   4.697  46.993  0.00  0.00    +0.000 A 
ATOM     22  C   UNL     1      22.198   4.180  47.431  0.00  0.00    +0.000 A 
ATOM     23  C   UNL     1      22.301   3.002  48.215  0.00  0.00    +0.000 A 
ATOM     24  C   UNL     1      23.673   2.547  48.645  0.00  0.00    +0.000 C 
BRANCH  18  28
ATOM     25  N   UNL     1      20.657   0.328  52.408  0.00  0.00    +0.000 N 
ATOM     26  C   UNL     1      22.012   0.383  51.840  0.00  0.00    +0.000 C 
ATOM     27  C   UNL     1      22.120   1.399  50.708  0.00  0.00    +0.000 C 
ATOM     28  C   UNL     1      21.070   1.182  49.604  0.00  0.00    +0.000 C 
ATOM     29  C   UNL     1      19.675   1.018  50.227  0.00  0.00    +0.000 C 
ATOM     30  C   UNL     1      19.675  -0.008  51.361  0.00  0.00    +0.000 C 
ATOM     31  H   UNL     1      20.448   1.252  52.787  0.00  0.00    +0.000 HD
BRANCH  25  32
ATOM     32  C   UNL     1      20.566  -0.652  53.507  0.00  0.00    +0.000 C 
BRANCH  32  34
ATOM     33  C   UNL     1      22.432  -1.530  55.035  0.00  0.00    +0.000 C 
ATOM     34  C   UNL     1      21.472  -0.392  54.722  0.00  0.00    +0.000 C 
ENDBRANCH  32  34
ENDBRANCH  25  32
ENDBRANCH  18  28
BRANCH  20  35
ATOM     35  O   UNL     1      18.526   4.264  46.942  0.00  0.00    +0.000 OA
ATOM     36  C   UNL     1      17.660   4.527  48.037  0.00  0.00    +0.000 C 
ENDBRANCH  20  35
ENDBRANCH  10  21
ENDBRANCH   1  15
BRANCH   2  37
ATOM     37  C   UNL     1      24.810   6.102  49.636  0.00  0.00    +0.000 A 
ATOM     38  C   UNL     1      23.568   6.712  49.759  0.00  0.00    +0.000 A 
ATOM     39  C   UNL     1      22.689   6.249  50.745  0.00  0.00    +0.000 A 
ATOM     40  C   UNL     1      23.031   5.192  51.640  0.00  0.00    +0.000 A 
ATOM     41  C   UNL     1      24.267   4.516  51.531  0.00  0.00    +0.000 A 
ATOM     42  C   UNL     1      25.139   5.025  50.514  0.00  0.00    +0.000 A 
BRANCH  41  43
ATOM     43  C   UNL     1      24.832   3.303  52.366  0.00  0.00    +0.000 C 
ATOM     44  O   UNL     1      24.152   2.899  53.308  0.00  0.00    +0.000 OA
ATOM     45  N   UNL     1      26.074   2.745  52.051  0.00  0.00    +0.000 N 
ATOM     46  H   UNL     1      26.500   3.144  51.258  0.00  0.00    +0.000 HD
BRANCH  45  47
ATOM     47  C   UNL     1      26.856   1.689  52.672  0.00  0.00    +0.000 A 
ATOM     48  C   UNL     1      28.062   1.756  53.379  0.00  0.00    +0.000 A 
ATOM     49  F   UNL     1      28.529   2.898  53.897  0.00  0.00    +0.000 F 
ATOM     50  C   UNL     1      28.840   0.590  53.614  0.00  0.00    +0.000 A 
ATOM     51  C   UNL     1      28.400  -0.668  53.202  0.00  0.00    +0.000 A 
ATOM     52  C   UNL     1      27.119  -0.777  52.683  0.00  0.00    +0.000 A 
ATOM     53  C   UNL     1      26.367   0.384  52.454  0.00  0.00    +0.000 A 
ATOM     54  F   UNL     1      25.115   0.230  51.994  0.00  0.00    +0.000 F 
ENDBRANCH  45  47
ENDBRANCH  41  43
BRANCH  40  55
ATOM     55  O   UNL     1      22.033   4.974  52.547  0.00  0.00    +0.000 OA
BRANCH  55  56
ATOM     56  C   UNL     1      21.062   3.992  52.200  0.00  0.00    +0.000 C 
ATOM     57  C   UNL     1      19.878   4.410  51.352  0.00  0.00    +0.000 C 
ENDBRANCH  55  56
ENDBRANCH  40  55
ENDBRANCH   2  37
TORSDOF 11
ENDMDL
MODEL 5
REMARK VINA RESULT:    -8.437      2.352      5.522
REMARK INTER + INTRA:         -17.876
REMARK INTER:                 -13.193
REMARK INTRA:                  -4.682
REMARK UNBOUND:                -4.014
REMARK  Name = 
REMARK  15 active torsions:
REMARK  status: ('A' for Active; 'I' for Inactive)
REMARK    1  A    between atoms: C_1  and  C_2
REMARK    2  A    between atoms: C_2  and  C_3
REMARK    3  A    between atoms: C_3  and  N_4
REMARK    4  A    between atoms: C_7  and  C_8
REMARK    5  A    between atoms: C_10  and  O_11
REMARK    6  A    between atoms: O_11  and  C_12
REMARK    7  A    between atoms: C_13  and  N_14
REMARK    8  A    between atoms: C_19  and  C_20
REMARK    9  A    between atoms: C_21  and  C_22
REMARK   10  A    between atoms: C_25  and  O_26
REMARK   11  A    between atoms: O_26  and  C_27
REMARK   12  A    between atoms: C_27  and  C_28
REMARK   13  A    between atoms: C_29  and  C_30
REMARK   14  A    between atoms: N_32  and  C_33
REMARK   15  A    between atoms: C_51  and  C_52
REMARK                            x       y       z     vdW  Elec       q    Type
REMARK                         _______ _______ _______ _____ _____    ______ ____
ROOT
ATOM      1  C   UNL     1      15.548   3.182  50.657  0.00  0.00    +0.000 A 
ATOM      2  C   UNL     1      16.441   2.964  51.698  0.00  0.00    +0.000 A 
ATOM      3  N   UNL     1      15.915   3.405  52.901  0.00  0.00    +0.000 NA
ATOM      4  C   UNL     1      14.707   3.847  52.623  0.00  0.00    +0.000 A 
ATOM      5  C   UNL     1      13.692   4.373  53.475  0.00  0.00    +0.000 A 
ATOM      6  C   UNL     1      12.508   4.758  52.959  0.00  0.00    +0.000 A 
ATOM      7  C   UNL     1      12.229   4.627  51.540  0.00  0.00    +0.000 A 
ATOM      8  C   UNL     1      13.174   4.114  50.731  0.00  0.00    +0.000 A 
ATOM      9  N   UNL     1      14.419   3.735  51.262  0.00  0.00    +0.000 N 
ENDROOT
BRANCH   1  15
ATOM     10  N   UNL     1      17.254   4.162  46.404  0.00  0.00    +0.000 N 
ATOM     11  C   UNL     1      16.438   3.360  47.201  0.00  0.00    +0.000 A 
ATOM     12  N   UNL     1      15.923   2.260  46.632  0.00  0.00    +0.000 NA
ATOM     13  C   UNL     1      15.272   1.403  47.449  0.00  0.00    +0.000 A 
ATOM     14  C   UNL     1      15.123   1.581  48.800  0.00  0.00    +0.000 A 
ATOM     15  C   UNL     1      15.638   2.753  49.275  0.00  0.00    +0.000 A 
ATOM     16  N   UNL     1      16.263   3.647  48.493  0.00  0.00    +0.000 NA
ATOM     17  H   UNL     1      17.056   4.133  45.441  0.00  0.00    +0.000 HD
BRANCH  10  21
ATOM     18  C   UNL     1      20.268   6.808  47.866  0.00  0.00    +0.000 A 
ATOM     19  C   UNL     1      20.578   5.467  47.520  0.00  0.00    +0.000 A 
ATOM     20  C   UNL     1      19.646   4.604  46.974  0.00  0.00    +0.000 A 
ATOM     21  C   UNL     1      18.320   5.010  46.772  0.00  0.00    +0.000 A 
ATOM     22  C   UNL     1      18.015   6.363  47.048  0.00  0.00    +0.000 A 
ATOM     23  C   UNL     1      18.971   7.272  47.569  0.00  0.00    +0.000 A 
ATOM     24  C   UNL     1      18.535   8.689  47.844  0.00  0.00    +0.000 C 
BRANCH  18  28
ATOM     25  N   UNL     1      24.034   7.640  49.811  0.00  0.00    +0.000 N 
ATOM     26  C   UNL     1      22.839   7.568  50.665  0.00  0.00    +0.000 C 
ATOM     27  C   UNL     1      21.656   6.931  49.944  0.00  0.00    +0.000 C 
ATOM     28  C   UNL     1      21.332   7.610  48.602  0.00  0.00    +0.000 C 
ATOM     29  C   UNL     1      22.614   7.775  47.771  0.00  0.00    +0.000 C 
ATOM     30  C   UNL     1      23.744   8.406  48.586  0.00  0.00    +0.000 C 
ATOM     31  H   UNL     1      24.289   6.684  49.564  0.00  0.00    +0.000 HD
BRANCH  25  32
ATOM     32  C   UNL     1      25.174   8.252  50.521  0.00  0.00    +0.000 C 
BRANCH  32  34
ATOM     33  C   UNL     1      27.466   9.340  50.137  0.00  0.00    +0.000 C 
ATOM     34  C   UNL     1      26.006   9.266  49.717  0.00  0.00    +0.000 C 
ENDBRANCH  32  34
ENDBRANCH  25  32
ENDBRANCH  18  28
BRANCH  20  35
ATOM     35  O   UNL     1      20.150   3.352  46.726  0.00  0.00    +0.000 OA
ATOM     36  C   UNL     1      20.373   2.577  47.895  0.00  0.00    +0.000 C 
ENDBRANCH  20  35
ENDBRANCH  10  21
ENDBRANCH   1  15
BRANCH   2  37
ATOM     37  C   UNL     1      17.709   2.225  51.641  0.00  0.00    +0.000 A 
ATOM     38  C   UNL     1      17.603   0.841  51.609  0.00  0.00    +0.000 A 
ATOM     39  C   UNL     1      18.776   0.080  51.543  0.00  0.00    +0.000 A 
ATOM     40  C   UNL     1      20.073   0.674  51.531  0.00  0.00    +0.000 A 
ATOM     41  C   UNL     1      20.233   2.078  51.524  0.00  0.00    +0.000 A 
ATOM     42  C   UNL     1      19.007   2.819  51.599  0.00  0.00    +0.000 A 
BRANCH  41  43
ATOM     43  C   UNL     1      21.548   2.946  51.463  0.00  0.00    +0.000 C 
ATOM     44  O   UNL     1      21.529   4.043  52.018  0.00  0.00    +0.000 OA
ATOM     45  N   UNL     1      22.670   2.481  50.771  0.00  0.00    +0.000 N 
ATOM     46  H   UNL     1      22.561   1.577  50.397  0.00  0.00    +0.000 HD
BRANCH  45  47
ATOM     47  C   UNL     1      23.966   3.080  50.499  0.00  0.00    +0.000 A 
ATOM     48  C   UNL     1      24.362   3.948  49.475  0.00  0.00    +0.000 A 
ATOM     49  F   UNL     1      23.484   4.651  48.750  0.00  0.00    +0.000 F 
ATOM     50  C   UNL     1      25.736   4.154  49.178  0.00  0.00    +0.000 A 
ATOM     51  C   UNL     1      26.738   3.545  49.935  0.00  0.00    +0.000 A 
ATOM     52  C   UNL     1      26.367   2.847  51.073  0.00  0.00    +0.000 A 
ATOM     53  C   UNL     1      25.007   2.650  51.349  0.00  0.00    +0.000 A 
ATOM     54  F   UNL     1      24.691   2.008  52.485  0.00  0.00    +0.000 F 
ENDBRANCH  45  47
ENDBRANCH  41  43
BRANCH  40  55
ATOM     55  O   UNL     1      21.051  -0.280  51.530  0.00  0.00    +0.000 OA
BRANCH  55  56
ATOM     56  C   UNL     1      21.863  -0.359  52.697  0.00  0.00    +0.000 C 
ATOM     57  C   UNL     1      21.195  -0.267  54.054  0.00  0.00    +0.000 C 
ENDBRANCH  55  56
ENDBRANCH  40  55
ENDBRANCH   2  37
TORSDOF 11
ENDMDL
MODEL 6
REMARK VINA RESULT:    -8.149      3.440      8.948
REMARK INTER + INTRA:         -17.403
REMARK INTER:                 -15.931
REMARK INTRA:                  -1.472
REMARK UNBOUND:                -4.014
REMARK  Name = 
REMARK  15 active torsions:
REMARK  status: ('A' for Active; 'I' for Inactive)
REMARK    1  A    between atoms: C_1  and  C_2
REMARK    2  A    between atoms: C_2  and  C_3
REMARK    3  A    between atoms: C_3  and  N_4
REMARK    4  A    between atoms: C_7  and  C_8
REMARK    5  A    between atoms: C_10  and  O_11
REMARK    6  A    between atoms: O_11  and  C_12
REMARK    7  A    between atoms: C_13  and  N_14
REMARK    8  A    between atoms: C_19  and  C_20
REMARK    9  A    between atoms: C_21  and  C_22
REMARK   10  A    between atoms: C_25  and  O_26
REMARK   11  A    between atoms: O_26  and  C_27
REMARK   12  A    between atoms: C_27  and  C_28
REMARK   13  A    between atoms: C_29  and  C_30
REMARK   14  A    between atoms: N_32  and  C_33
REMARK   15  A    between atoms: C_51  and  C_52
REMARK                            x       y       z     vdW  Elec       q    Type
REMARK                         _______ _______ _______ _____ _____    ______ ____
ROOT
ATOM      1  C   UNL     1      23.124   1.387  51.086  0.00  0.00    +0.000 A 
ATOM      2  C   UNL     1      22.784   0.646  52.211  0.00  0.00    +0.000 A 
ATOM      3  N   UNL     1      23.855   0.552  53.082  0.00  0.00    +0.000 NA
ATOM      4  C   UNL     1      24.826   1.253  52.536  0.00  0.00    +0.000 A 
ATOM      5  C   UNL     1      26.140   1.545  53.006  0.00  0.00    +0.000 A 
ATOM      6  C   UNL     1      26.969   2.308  52.267  0.00  0.00    +0.000 A 
ATOM      7  C   UNL     1      26.543   2.865  50.996  0.00  0.00    +0.000 A 
ATOM      8  C   UNL     1      25.298   2.611  50.552  0.00  0.00    +0.000 A 
ATOM      9  N   UNL     1      24.439   1.795  51.309  0.00  0.00    +0.000 N 
ENDROOT
BRANCH   1  15
ATOM     10  N   UNL     1      21.657   5.079  48.601  0.00  0.00    +0.000 N 
ATOM     11  C   UNL     1      21.538   3.721  48.893  0.00  0.00    +0.000 A 
ATOM     12  N   UNL     1      20.743   2.994  48.096  0.00  0.00    +0.000 NA
ATOM     13  C   UNL     1      20.760   1.655  48.281  0.00  0.00    +0.000 A 
ATOM     14  C   UNL     1      21.537   1.009  49.207  0.00  0.00    +0.000 A 
ATOM     15  C   UNL     1      22.274   1.840  50.002  0.00  0.00    +0.000 A 
ATOM     16  N   UNL     1      22.261   3.176  49.875  0.00  0.00    +0.000 NA
ATOM     17  H   UNL     1      20.875   5.481  48.158  0.00  0.00    +0.000 HD
BRANCH  10  21
ATOM     18  C   UNL     1      25.033   7.667  48.952  0.00  0.00    +0.000 A 
ATOM     19  C   UNL     1      23.715   8.155  49.146  0.00  0.00    +0.000 A 
ATOM     20  C   UNL     1      22.603   7.333  49.114  0.00  0.00    +0.000 A 
ATOM     21  C   UNL     1      22.729   5.964  48.844  0.00  0.00    +0.000 A 
ATOM     22  C   UNL     1      24.040   5.453  48.717  0.00  0.00    +0.000 A 
ATOM     23  C   UNL     1      25.193   6.277  48.788  0.00  0.00    +0.000 A 
ATOM     24  C   UNL     1      26.545   5.632  48.621  0.00  0.00    +0.000 C 
BRANCH  18  28
ATOM     25  N   UNL     1      29.065   9.215  49.010  0.00  0.00    +0.000 N 
ATOM     26  C   UNL     1      28.179   9.609  50.115  0.00  0.00    +0.000 C 
ATOM     27  C   UNL     1      26.927   8.741  50.184  0.00  0.00    +0.000 C 
ATOM     28  C   UNL     1      26.156   8.690  48.854  0.00  0.00    +0.000 C 
ATOM     29  C   UNL     1      27.120   8.385  47.696  0.00  0.00    +0.000 C 
ATOM     30  C   UNL     1      28.349   9.294  47.724  0.00  0.00    +0.000 C 
ATOM     31  H   UNL     1      29.354   8.252  49.180  0.00  0.00    +0.000 HD
BRANCH  25  32
ATOM     32  C   UNL     1      30.276  10.056  48.956  0.00  0.00    +0.000 C 
BRANCH  32  34
ATOM     33  C   UNL     1      31.755   7.991  49.324  0.00  0.00    +0.000 C 
ATOM     34  C   UNL     1      31.591   9.330  48.621  0.00  0.00    +0.000 C 
ENDBRANCH  32  34
ENDBRANCH  25  32
ENDBRANCH  18  28
BRANCH  20  35
ATOM     35  O   UNL     1      21.426   8.009  49.314  0.00  0.00    +0.000 OA
ATOM     36  C   UNL     1      21.497   9.394  49.008  0.00  0.00    +0.000 C 
ENDBRANCH  20  35
ENDBRANCH  10  21
ENDBRANCH   1  15
BRANCH   2  37
ATOM     37  C   UNL     1      21.452   0.145  52.574  0.00  0.00    +0.000 A 
ATOM     38  C   UNL     1      21.422  -0.845  53.548  0.00  0.00    +0.000 A 
ATOM     39  C   UNL     1      20.182  -1.357  53.945  0.00  0.00    +0.000 A 
ATOM     40  C   UNL     1      18.953  -0.915  53.372  0.00  0.00    +0.000 A 
ATOM     41  C   UNL     1      18.927   0.115  52.406  0.00  0.00    +0.000 A 
ATOM     42  C   UNL     1      20.219   0.606  52.022  0.00  0.00    +0.000 A 
BRANCH  41  43
ATOM     43  C   UNL     1      17.701   0.791  51.680  0.00  0.00    +0.000 C 
ATOM     44  O   UNL     1      16.819   0.049  51.252  0.00  0.00    +0.000 OA
ATOM     45  N   UNL     1      17.655   2.177  51.512  0.00  0.00    +0.000 N 
ATOM     46  H   UNL     1      18.410   2.654  51.926  0.00  0.00    +0.000 HD
BRANCH  45  47
ATOM     47  C   UNL     1      16.703   3.048  50.842  0.00  0.00    +0.000 A 
ATOM     48  C   UNL     1      15.743   3.915  51.376  0.00  0.00    +0.000 A 
ATOM     49  F   UNL     1      15.783   4.339  52.644  0.00  0.00    +0.000 F 
ATOM     50  C   UNL     1      14.686   4.423  50.573  0.00  0.00    +0.000 A 
ATOM     51  C   UNL     1      14.604   4.123  49.213  0.00  0.00    +0.000 A 
ATOM     52  C   UNL     1      15.655   3.434  48.628  0.00  0.00    +0.000 A 
ATOM     53  C   UNL     1      16.687   2.937  49.436  0.00  0.00    +0.000 A 
ATOM     54  F   UNL     1      17.708   2.316  48.824  0.00  0.00    +0.000 F 
ENDBRANCH  45  47
ENDBRANCH  41  43
BRANCH  40  55
ATOM     55  O   UNL     1      17.894  -1.613  53.881  0.00  0.00    +0.000 OA
BRANCH  55  56
ATOM     56  C   UNL     1      17.831  -2.998  53.557  0.00  0.00    +0.000 C 
ATOM     57  C   UNL     1      16.484  -3.605  53.222  0.00  0.00    +0.000 C 
ENDBRANCH  55  56
ENDBRANCH  40  55
ENDBRANCH   2  37
TORSDOF 11
ENDMDL
MODEL 7
REMARK VINA RESULT:    -8.027      3.178      7.108
REMARK INTER + INTRA:         -17.202
REMARK INTER:                 -14.814
REMARK INTRA:                  -2.387
REMARK UNBOUND:                -4.014
REMARK  Name = 
REMARK  15 active torsions:
REMARK  status: ('A' for Active; 'I' for Inactive)
REMARK    1  A    between atoms: C_1  and  C_2
REMARK    2  A    between atoms: C_2  and  C_3
REMARK    3  A    between atoms: C_3  and  N_4
REMARK    4  A    between atoms: C_7  and  C_8
REMARK    5  A    between atoms: C_10  and  O_11
REMARK    6  A    between atoms: O_11  and  C_12
REMARK    7  A    between atoms: C_13  and  N_14
REMARK    8  A    between atoms: C_19  and  C_20
REMARK    9  A    between atoms: C_21  and  C_22
REMARK   10  A    between atoms: C_25  and  O_26
REMARK   11  A    between atoms: O_26  and  C_27
REMARK   12  A    between atoms: C_27  and  C_28
REMARK   13  A    between atoms: C_29  and  C_30
REMARK   14  A    between atoms: N_32  and  C_33
REMARK   15  A    between atoms: C_51  and  C_52
REMARK                            x       y       z     vdW  Elec       q    Type
REMARK                         _______ _______ _______ _____ _____    ______ ____
ROOT
ATOM      1  C   UNL     1      18.631   3.764  47.998  0.00  0.00    +0.000 A 
ATOM      2  C   UNL     1      17.981   3.209  46.903  0.00  0.00    +0.000 A 
ATOM      3  N   UNL     1      18.794   3.231  45.783  0.00  0.00    +0.000 NA
ATOM      4  C   UNL     1      19.938   3.748  46.179  0.00  0.00    +0.000 A 
ATOM      5  C   UNL     1      21.154   3.969  45.469  0.00  0.00    +0.000 A 
ATOM      6  C   UNL     1      22.217   4.509  46.097  0.00  0.00    +0.000 A 
ATOM      7  C   UNL     1      22.160   4.856  47.506  0.00  0.00    +0.000 A 
ATOM      8  C   UNL     1      21.022   4.633  48.191  0.00  0.00    +0.000 A 
ATOM      9  N   UNL     1      19.904   4.093  47.532  0.00  0.00    +0.000 N 
ENDROOT
BRANCH   1  15
ATOM     10  N   UNL     1      19.452   2.272  52.363  0.00  0.00    +0.000 N 
ATOM     11  C   UNL     1      18.622   2.961  51.480  0.00  0.00    +0.000 A 
ATOM     12  N   UNL     1      17.604   3.651  52.014  0.00  0.00    +0.000 NA
ATOM     13  C   UNL     1      16.905   4.446  51.174  0.00  0.00    +0.000 A 
ATOM     14  C   UNL     1      17.179   4.597  49.839  0.00  0.00    +0.000 A 
ATOM     15  C   UNL     1      18.201   3.816  49.382  0.00  0.00    +0.000 A 
ATOM     16  N   UNL     1      18.900   2.988  50.174  0.00  0.00    +0.000 NA
ATOM     17  H   UNL     1      19.022   1.981  53.199  0.00  0.00    +0.000 HD
BRANCH  10  21
ATOM     18  C   UNL     1      23.662   1.583  52.206  0.00  0.00    +0.000 A 
ATOM     19  C   UNL     1      22.782   0.611  52.747  0.00  0.00    +0.000 A 
ATOM     20  C   UNL     1      21.408   0.766  52.748  0.00  0.00    +0.000 A 
ATOM     21  C   UNL     1      20.815   1.930  52.240  0.00  0.00    +0.000 A 
ATOM     22  C   UNL     1      21.675   2.876  51.636  0.00  0.00    +0.000 A 
ATOM     23  C   UNL     1      23.083   2.711  51.591  0.00  0.00    +0.000 A 
ATOM     24  C   UNL     1      23.909   3.790  50.938  0.00  0.00    +0.000 C 
BRANCH  18  28
ATOM     25  N   UNL     1      27.338   0.623  54.260  0.00  0.00    +0.000 N 
ATOM     26  C   UNL     1      27.117   2.033  53.903  0.00  0.00    +0.000 C 
ATOM     27  C   UNL     1      25.668   2.306  53.515  0.00  0.00    +0.000 C 
ATOM     28  C   UNL     1      25.156   1.371  52.405  0.00  0.00    +0.000 C 
ATOM     29  C   UNL     1      25.495  -0.089  52.746  0.00  0.00    +0.000 C 
ATOM     30  C   UNL     1      26.964  -0.256  53.138  0.00  0.00    +0.000 C 
ATOM     31  H   UNL     1      26.748   0.418  55.066  0.00  0.00    +0.000 HD
BRANCH  25  32
ATOM     32  C   UNL     1      28.742   0.372  54.641  0.00  0.00    +0.000 C 
BRANCH  32  34
ATOM     33  C   UNL     1      30.156  -1.577  53.754  0.00  0.00    +0.000 C 
ATOM     34  C   UNL     1      29.661  -0.157  53.526  0.00  0.00    +0.000 C 
ENDBRANCH  32  34
ENDBRANCH  25  32
ENDBRANCH  18  28
BRANCH  20  35
ATOM     35  O   UNL     1      20.745  -0.285  53.330  0.00  0.00    +0.000 OA
ATOM     36  C   UNL     1      21.169  -0.571  54.655  0.00  0.00    +0.000 C 
ENDBRANCH  20  35
ENDBRANCH  10  21
ENDBRANCH   1  15
BRANCH   2  37
ATOM     37  C   UNL     1      16.683   2.524  46.895  0.00  0.00    +0.000 A 
ATOM     38  C   UNL     1      16.364   1.843  45.727  0.00  0.00    +0.000 A 
ATOM     39  C   UNL     1      15.144   1.161  45.660  0.00  0.00    +0.000 A 
ATOM     40  C   UNL     1      14.209   1.158  46.738  0.00  0.00    +0.000 A 
ATOM     41  C   UNL     1      14.503   1.804  47.960  0.00  0.00    +0.000 A 
ATOM     42  C   UNL     1      15.758   2.496  47.983  0.00  0.00    +0.000 A 
BRANCH  41  43
ATOM     43  C   UNL     1      13.655   1.890  49.287  0.00  0.00    +0.000 C 
ATOM     44  O   UNL     1      12.459   1.618  49.213  0.00  0.00    +0.000 OA
ATOM     45  N   UNL     1      14.255   2.292  50.484  0.00  0.00    +0.000 N 
ATOM     46  H   UNL     1      15.223   2.453  50.411  0.00  0.00    +0.000 HD
BRANCH  45  47
ATOM     47  C   UNL     1      13.719   2.520  51.816  0.00  0.00    +0.000 A 
ATOM     48  C   UNL     1      13.555   1.632  52.886  0.00  0.00    +0.000 A 
ATOM     49  F   UNL     1      14.203   0.463  52.955  0.00  0.00    +0.000 F 
ATOM     50  C   UNL     1      12.709   1.952  53.982  0.00  0.00    +0.000 A 
ATOM     51  C   UNL     1      12.061   3.185  54.058  0.00  0.00    +0.000 A 
ATOM     52  C   UNL     1      12.371   4.149  53.111  0.00  0.00    +0.000 A 
ATOM     53  C   UNL     1      13.205   3.814  52.035  0.00  0.00    +0.000 A 
ATOM     54  F   UNL     1      13.517   4.789  51.166  0.00  0.00    +0.000 F 
ENDBRANCH  45  47
ENDBRANCH  41  43
BRANCH  40  55
ATOM     55  O   UNL     1      13.072   0.479  46.401  0.00  0.00    +0.000 OA
BRANCH  55  56
ATOM     56  C   UNL     1      13.147  -0.942  46.438  0.00  0.00    +0.000 C 
ATOM     57  C   UNL     1      13.248  -1.629  47.785  0.00  0.00    +0.000 C 
ENDBRANCH  55  56
ENDBRANCH  40  55
ENDBRANCH   2  37
TORSDOF 11
ENDMDL
MODEL 8
REMARK VINA RESULT:    -8.015      3.303      8.512
REMARK INTER + INTRA:         -17.182
REMARK INTER:                 -16.071
REMARK INTRA:                  -1.111
REMARK UNBOUND:                -4.014
REMARK  Name = 
REMARK  15 active torsions:
REMARK  status: ('A' for Active; 'I' for Inactive)
REMARK    1  A    between atoms: C_1  and  C_2
REMARK    2  A    between atoms: C_2  and  C_3
REMARK    3  A    between atoms: C_3  and  N_4
REMARK    4  A    between atoms: C_7  and  C_8
REMARK    5  A    between atoms: C_10  and  O_11
REMARK    6  A    between atoms: O_11  and  C_12
REMARK    7  A    between atoms: C_13  and  N_14
REMARK    8  A    between atoms: C_19  and  C_20
REMARK    9  A    between atoms: C_21  and  C_22
REMARK   10  A    between atoms: C_25  and  O_26
REMARK   11  A    between atoms: O_26  and  C_27
REMARK   12  A    between atoms: C_27  and  C_28
REMARK   13  A    between atoms: C_29  and  C_30
REMARK   14  A    between atoms: N_32  and  C_33
REMARK   15  A    between atoms: C_51  and  C_52
REMARK                            x       y       z     vdW  Elec       q    Type
REMARK                         _______ _______ _______ _____ _____    ______ ____
ROOT
ATOM      1  C   UNL     1      19.349   1.249  52.094  0.00  0.00    +0.000 A 
ATOM      2  C   UNL     1      20.606   1.275  52.684  0.00  0.00    +0.000 A 
ATOM      3  N   UNL     1      20.791   0.172  53.500  0.00  0.00    +0.000 NA
ATOM      4  C   UNL     1      19.693  -0.545  53.388  0.00  0.00    +0.000 A 
ATOM      5  C   UNL     1      19.342  -1.803  53.962  0.00  0.00    +0.000 A 
ATOM      6  C   UNL     1      18.146  -2.360  53.690  0.00  0.00    +0.000 A 
ATOM      7  C   UNL     1      17.201  -1.714  52.796  0.00  0.00    +0.000 A 
ATOM      8  C   UNL     1      17.533  -0.536  52.233  0.00  0.00    +0.000 A 
ATOM      9  N   UNL     1      18.769   0.060  52.535  0.00  0.00    +0.000 N 
ENDROOT
BRANCH   1  15
ATOM     10  N   UNL     1      16.448   1.593  48.430  0.00  0.00    +0.000 N 
ATOM     11  C   UNL     1      17.426   2.182  49.230  0.00  0.00    +0.000 A 
ATOM     12  N   UNL     1      17.672   3.485  49.031  0.00  0.00    +0.000 NA
ATOM     13  C   UNL     1      18.497   4.088  49.914  0.00  0.00    +0.000 A 
ATOM     14  C   UNL     1      19.075   3.462  50.989  0.00  0.00    +0.000 A 
ATOM     15  C   UNL     1      18.803   2.127  51.076  0.00  0.00    +0.000 A 
ATOM     16  N   UNL     1      18.016   1.481  50.202  0.00  0.00    +0.000 NA
ATOM     17  H   UNL     1      16.330   2.003  47.544  0.00  0.00    +0.000 HD
BRANCH  10  21
ATOM     18  C   UNL     1      14.232  -1.938  49.350  0.00  0.00    +0.000 A 
ATOM     19  C   UNL     1      13.947  -0.708  49.996  0.00  0.00    +0.000 A 
ATOM     20  C   UNL     1      14.592   0.472  49.672  0.00  0.00    +0.000 A 
ATOM     21  C   UNL     1      15.602   0.496  48.701  0.00  0.00    +0.000 A 
ATOM     22  C   UNL     1      15.848  -0.707  48.001  0.00  0.00    +0.000 A 
ATOM     23  C   UNL     1      15.165  -1.916  48.294  0.00  0.00    +0.000 A 
ATOM     24  C   UNL     1      15.517  -3.147  47.498  0.00  0.00    +0.000 C 
BRANCH  18  28
ATOM     25  N   UNL     1      12.740  -4.724  52.295  0.00  0.00    +0.000 N 
ATOM     26  C   UNL     1      13.930  -5.127  51.532  0.00  0.00    +0.000 C 
ATOM     27  C   UNL     1      14.566  -3.953  50.796  0.00  0.00    +0.000 C 
ATOM     28  C   UNL     1      13.571  -3.194  49.900  0.00  0.00    +0.000 C 
ATOM     29  C   UNL     1      12.288  -2.878  50.686  0.00  0.00    +0.000 C 
ATOM     30  C   UNL     1      11.740  -4.114  51.401  0.00  0.00    +0.000 C 
ATOM     31  H   UNL     1      13.041  -4.039  52.988  0.00  0.00    +0.000 HD
BRANCH  25  32
ATOM     32  C   UNL     1      12.138  -5.866  53.008  0.00  0.00    +0.000 C 
BRANCH  32  34
ATOM     33  C   UNL     1      12.935  -4.621  55.106  0.00  0.00    +0.000 C 
ATOM     34  C   UNL     1      12.104  -5.764  54.543  0.00  0.00    +0.000 C 
ENDBRANCH  32  34
ENDBRANCH  25  32
ENDBRANCH  18  28
BRANCH  20  35
ATOM     35  O   UNL     1      14.175   1.540  50.425  0.00  0.00    +0.000 OA
ATOM     36  C   UNL     1      14.797   1.625  51.700  0.00  0.00    +0.000 C 
ENDBRANCH  20  35
ENDBRANCH  10  21
ENDBRANCH   1  15
BRANCH   2  37
ATOM     37  C   UNL     1      21.701   2.212  52.403  0.00  0.00    +0.000 A 
ATOM     38  C   UNL     1      21.347   3.553  52.327  0.00  0.00    +0.000 A 
ATOM     39  C   UNL     1      22.347   4.497  52.072  0.00  0.00    +0.000 A 
ATOM     40  C   UNL     1      23.710   4.131  51.865  0.00  0.00    +0.000 A 
ATOM     41  C   UNL     1      24.128   2.785  51.969  0.00  0.00    +0.000 A 
ATOM     42  C   UNL     1      23.071   1.850  52.225  0.00  0.00    +0.000 A 
BRANCH  41  43
ATOM     43  C   UNL     1      25.569   2.160  51.832  0.00  0.00    +0.000 C 
ATOM     44  O   UNL     1      26.209   2.432  50.818  0.00  0.00    +0.000 OA
ATOM     45  N   UNL     1      26.067   1.307  52.820  0.00  0.00    +0.000 N 
ATOM     46  H   UNL     1      25.465   1.195  53.591  0.00  0.00    +0.000 HD
BRANCH  45  47
ATOM     47  C   UNL     1      27.305   0.552  52.926  0.00  0.00    +0.000 A 
ATOM     48  C   UNL     1      27.554  -0.808  52.707  0.00  0.00    +0.000 A 
ATOM     49  F   UNL     1      26.717  -1.590  52.016  0.00  0.00    +0.000 F 
ATOM     50  C   UNL     1      28.743  -1.422  53.185  0.00  0.00    +0.000 A 
ATOM     51  C   UNL     1      29.729  -0.679  53.835  0.00  0.00    +0.000 A 
ATOM     52  C   UNL     1      29.589   0.700  53.879  0.00  0.00    +0.000 A 
ATOM     53  C   UNL     1      28.408   1.288  53.407  0.00  0.00    +0.000 A 
ATOM     54  F   UNL     1      28.332   2.629  53.426  0.00  0.00    +0.000 F 
ENDBRANCH  45  47
ENDBRANCH  41  43
BRANCH  40  55
ATOM     55  O   UNL     1      24.474   5.225  51.570  0.00  0.00    +0.000 OA
BRANCH  55  56
ATOM     56  C   UNL     1      24.480   5.647  50.210  0.00  0.00    +0.000 C 
ATOM     57  C   UNL     1      25.803   5.699  49.472  0.00  0.00    +0.000 C 
ENDBRANCH  55  56
ENDBRANCH  40  55
ENDBRANCH   2  37
TORSDOF 11
ENDMDL
MODEL 9
REMARK VINA RESULT:    -7.864      2.956      9.413
REMARK INTER + INTRA:         -16.935
REMARK INTER:                 -12.456
REMARK INTRA:                  -4.480
REMARK UNBOUND:                -4.014
REMARK  Name = 
REMARK  15 active torsions:
REMARK  status: ('A' for Active; 'I' for Inactive)
REMARK    1  A    between atoms: C_1  and  C_2
REMARK    2  A    between atoms: C_2  and  C_3
REMARK    3  A    between atoms: C_3  and  N_4
REMARK    4  A    between atoms: C_7  and  C_8
REMARK    5  A    between atoms: C_10  and  O_11
REMARK    6  A    between atoms: O_11  and  C_12
REMARK    7  A    between atoms: C_13  and  N_14
REMARK    8  A    between atoms: C_19  and  C_20
REMARK    9  A    between atoms: C_21  and  C_22
REMARK   10  A    between atoms: C_25  and  O_26
REMARK   11  A    between atoms: O_26  and  C_27
REMARK   12  A    between atoms: C_27  and  C_28
REMARK   13  A    between atoms: C_29  and  C_30
REMARK   14  A    between atoms: N_32  and  C_33
REMARK   15  A    between atoms: C_51  and  C_52
REMARK                            x       y       z     vdW  Elec       q    Type
REMARK                         _______ _______ _______ _____ _____    ______ ____
ROOT
ATOM      1  C   UNL     1      24.856   1.765  52.607  0.00  0.00    +0.000 A 
ATOM      2  C   UNL     1      24.017   0.662  52.519  0.00  0.00    +0.000 A 
ATOM      3  N   UNL     1      24.740  -0.516  52.594  0.00  0.00    +0.000 NA
ATOM      4  C   UNL     1      25.994  -0.157  52.768  0.00  0.00    +0.000 A 
ATOM      5  C   UNL     1      27.168  -0.944  52.957  0.00  0.00    +0.000 A 
ATOM      6  C   UNL     1      28.363  -0.345  53.131  0.00  0.00    +0.000 A 
ATOM      7  C   UNL     1      28.482   1.102  53.154  0.00  0.00    +0.000 A 
ATOM      8  C   UNL     1      27.376   1.853  52.996  0.00  0.00    +0.000 A 
ATOM      9  N   UNL     1      26.132   1.232  52.789  0.00  0.00    +0.000 N 
ENDROOT
BRANCH   1  15
ATOM     10  N   UNL     1      23.682   5.640  50.249  0.00  0.00    +0.000 N 
ATOM     11  C   UNL     1      24.026   5.047  51.463  0.00  0.00    +0.000 A 
ATOM     12  N   UNL     1      23.906   5.801  52.565  0.00  0.00    +0.000 NA
ATOM     13  C   UNL     1      24.081   5.175  53.750  0.00  0.00    +0.000 A 
ATOM     14  C   UNL     1      24.355   3.839  53.888  0.00  0.00    +0.000 A 
ATOM     15  C   UNL     1      24.508   3.169  52.708  0.00  0.00    +0.000 A 
ATOM     16  N   UNL     1      24.375   3.759  51.510  0.00  0.00    +0.000 NA
ATOM     17  H   UNL     1      23.799   6.617  50.213  0.00  0.00    +0.000 HD
BRANCH  10  21
ATOM     18  C   UNL     1      21.848   3.771  46.878  0.00  0.00    +0.000 A 
ATOM     19  C   UNL     1      22.311   5.110  46.808  0.00  0.00    +0.000 A 
ATOM     20  C   UNL     1      22.976   5.724  47.854  0.00  0.00    +0.000 A 
ATOM     21  C   UNL     1      23.191   5.051  49.064  0.00  0.00    +0.000 A 
ATOM     22  C   UNL     1      22.796   3.695  49.123  0.00  0.00    +0.000 A 
ATOM     23  C   UNL     1      22.149   3.040  48.044  0.00  0.00    +0.000 A 
ATOM     24  C   UNL     1      21.754   1.595  48.218  0.00  0.00    +0.000 C 
BRANCH  18  28
ATOM     25  N   UNL     1      18.833   3.829  43.785  0.00  0.00    +0.000 N 
ATOM     26  C   UNL     1      18.572   2.985  44.961  0.00  0.00    +0.000 C 
ATOM     27  C   UNL     1      19.508   3.311  46.120  0.00  0.00    +0.000 C 
ATOM     28  C   UNL     1      20.995   3.259  45.726  0.00  0.00    +0.000 C 
ATOM     29  C   UNL     1      21.226   4.057  44.433  0.00  0.00    +0.000 C 
ATOM     30  C   UNL     1      20.229   3.671  43.339  0.00  0.00    +0.000 C 
ATOM     31  H   UNL     1      18.672   4.797  44.063  0.00  0.00    +0.000 HD
BRANCH  25  32
ATOM     32  C   UNL     1      17.918   3.511  42.673  0.00  0.00    +0.000 C 
BRANCH  32  34
ATOM     33  C   UNL     1      15.356   3.515  42.835  0.00  0.00    +0.000 C 
ATOM     34  C   UNL     1      16.644   2.733  43.046  0.00  0.00    +0.000 C 
ENDBRANCH  32  34
ENDBRANCH  25  32
ENDBRANCH  18  28
BRANCH  20  35
ATOM     35  O   UNL     1      23.326   7.023  47.583  0.00  0.00    +0.000 OA
ATOM     36  C   UNL     1      22.278   7.959  47.794  0.00  0.00    +0.000 C 
ENDBRANCH  20  35
ENDBRANCH  10  21
ENDBRANCH   1  15
BRANCH   2  37
ATOM     37  C   UNL     1      22.548   0.661  52.514  0.00  0.00    +0.000 A 
ATOM     38  C   UNL     1      21.941  -0.485  53.009  0.00  0.00    +0.000 A 
ATOM     39  C   UNL     1      20.543  -0.543  53.040  0.00  0.00    +0.000 A 
ATOM     40  C   UNL     1      19.722   0.522  52.563  0.00  0.00    +0.000 A 
ATOM     41  C   UNL     1      20.292   1.724  52.085  0.00  0.00    +0.000 A 
ATOM     42  C   UNL     1      21.725   1.738  52.064  0.00  0.00    +0.000 A 
BRANCH  41  43
ATOM     43  C   UNL     1      19.591   3.036  51.562  0.00  0.00    +0.000 C 
ATOM     44  O   UNL     1      19.364   3.922  52.384  0.00  0.00    +0.000 OA
ATOM     45  N   UNL     1      19.222   3.153  50.219  0.00  0.00    +0.000 N 
ATOM     46  H   UNL     1      19.487   2.384  49.664  0.00  0.00    +0.000 HD
BRANCH  45  47
ATOM     47  C   UNL     1      18.521   4.195  49.487  0.00  0.00    +0.000 A 
ATOM     48  C   UNL     1      17.251   4.184  48.897  0.00  0.00    +0.000 A 
ATOM     49  F   UNL     1      16.317   3.283  49.221  0.00  0.00    +0.000 F 
ATOM     50  C   UNL     1      16.878   5.168  47.942  0.00  0.00    +0.000 A 
ATOM     51  C   UNL     1      17.741   6.210  47.603  0.00  0.00    +0.000 A 
ATOM     52  C   UNL     1      18.917   6.349  48.323  0.00  0.00    +0.000 A 
ATOM     53  C   UNL     1      19.272   5.367  49.260  0.00  0.00    +0.000 A 
ATOM     54  F   UNL     1      20.395   5.563  49.968  0.00  0.00    +0.000 F 
ENDBRANCH  45  47
ENDBRANCH  41  43
BRANCH  40  55
ATOM     55  O   UNL     1      18.398   0.196  52.642  0.00  0.00    +0.000 OA
BRANCH  55  56
ATOM     56  C   UNL     1      17.840  -0.470  51.514  0.00  0.00    +0.000 C 
ATOM     57  C   UNL     1      17.088   0.351  50.485  0.00  0.00    +0.000 C 
ENDBRANCH  55  56
ENDBRANCH  40  55
ENDBRANCH   2  37
TORSDOF 11
ENDMDL
