REMARK  Name = 
REMARK  6 active torsions:
REMARK  status: ('A' for Active; 'I' for Inactive)
REMARK    1  A    between atoms: N_1  and  C_2
REMARK    2  A    between atoms: N_5  and  C_6
REMARK    3  A    between atoms: C_6  and  C_7
REMARK    4  A    between atoms: N_15  and  C_16
REMARK    5  A    between atoms: N_23  and  C_24
REMARK    6  A    between atoms: C_24  and  C_25
REMARK                            x       y       z     vdW  Elec       q    Type
REMARK                         _______ _______ _______ _____ _____    ______ ____
ROOT
ATOM      1  C   UNL     1      -1.196   1.696   3.172  0.00  0.00    +0.000 A 
ATOM      2  C   UNL     1      -1.728   0.899   4.242  0.00  0.00    +0.000 A 
ATOM      3  C   UNL     1      -0.719   0.696   5.150  0.00  0.00    +0.000 A 
ATOM      4  N   UNL     1       0.395   1.327   4.676  0.00  0.00    +0.000 N 
ATOM      5  N   UNL     1       1.624   1.158   5.179  0.00  0.00    +0.000 NA
ATOM      6  C   UNL     1       2.519   1.866   4.579  0.00  0.00    +0.000 A 
ATOM      7  N   UNL     1       2.302   2.817   3.622  0.00  0.00    +0.000 NA
ATOM      8  C   UNL     1       1.117   2.993   3.109  0.00  0.00    +0.000 A 
ATOM      9  N   UNL     1       0.870   4.046   2.245  0.00  0.00    +0.000 N 
ATOM     10  C   UNL     1       0.077   2.092   3.579  0.00  0.00    +0.000 A 
ATOM     11  H   UNL     1      -0.079   4.185   2.020  0.00  0.00    +0.000 HD
ENDROOT
BRANCH   9  12
ATOM     12  C   UNL     1       1.770   4.956   1.632  0.00  0.00    +0.000 A 
ATOM     13  C   UNL     1       1.255   6.132   1.053  0.00  0.00    +0.000 A 
ATOM     14  C   UNL     1       2.051   7.043   0.331  0.00  0.00    +0.000 A 
ATOM     15  C   UNL     1       3.406   6.730   0.178  0.00  0.00    +0.000 A 
ATOM     16  C   UNL     1       3.973   5.626   0.804  0.00  0.00    +0.000 A 
ATOM     17  C   UNL     1       5.334   5.664   0.431  0.00  0.00    +0.000 A 
ATOM     18  N   UNL     1       5.624   6.684  -0.382  0.00  0.00    +0.000 NA
ATOM     19  N   UNL     1       4.432   7.311  -0.539  0.00  0.00    +0.000 N 
ATOM     20  C   UNL     1       3.161   4.765   1.577  0.00  0.00    +0.000 A 
BRANCH  19  21
ATOM     21  C   UNL     1       4.376   8.520  -1.346  0.00  0.00    +0.000 C 
BRANCH  21  22
ATOM     22  C   UNL     1       3.874   8.259  -2.744  0.00  0.00    +0.000 A 
ATOM     23  C   UNL     1       4.745   7.830  -3.747  0.00  0.00    +0.000 A 
ATOM     24  C   UNL     1       4.263   7.691  -5.048  0.00  0.00    +0.000 A 
ATOM     25  C   UNL     1       2.928   7.964  -5.313  0.00  0.00    +0.000 A 
ATOM     26  C   UNL     1       2.122   8.359  -4.260  0.00  0.00    +0.000 A 
ATOM     27  N   UNL     1       2.562   8.520  -2.991  0.00  0.00    +0.000 NA
ENDBRANCH  21  22
ENDBRANCH  19  21
ENDBRANCH   9  12
BRANCH   1  28
ATOM     28  C   UNL     1      -1.967   1.931   1.902  0.00  0.00    +0.000 C 
BRANCH  28  32
ATOM     29  C   UNL     1      -3.610  -0.939  -0.035  0.00  0.00    +0.000 C 
ATOM     30  C   UNL     1      -3.690   0.549  -0.393  0.00  0.00    +0.000 C 
ATOM     31  C   UNL     1      -2.320   1.245  -0.412  0.00  0.00    +0.000 C 
ATOM     32  N   UNL     1      -1.508   1.054   0.808  0.00  0.00    +0.000 N 
ATOM     33  C   UNL     1      -1.409  -0.385   1.112  0.00  0.00    +0.000 C 
ATOM     34  C   UNL     1      -2.746  -1.124   1.215  0.00  0.00    +0.000 C 
ATOM     35  H   UNL     1      -0.547   1.360   0.659  0.00  0.00    +0.000 HD
BRANCH  29  36
ATOM     36  N   UNL     1      -3.117  -1.732  -1.167  0.00  0.00    +0.000 N 
ATOM     37  H   UNL     1      -3.719  -1.580  -1.976  0.00  0.00    +0.000 HD
ATOM     38  H   UNL     1      -3.126  -2.721  -0.918  0.00  0.00    +0.000 HD
ATOM     39  H   UNL     1      -2.165  -1.446  -1.393  0.00  0.00    +0.000 HD
ENDBRANCH  29  36
ENDBRANCH  28  32
ENDBRANCH   1  28
TORSDOF 6
