REMARK  Name = 
REMARK  7 active torsions:
REMARK  status: ('A' for Active; 'I' for Inactive)
REMARK    1  A    between atoms: C_1  and  O_2
REMARK    2  A    between atoms: O_2  and  C_3
REMARK    3  A    between atoms: C_6  and  N_7
REMARK    4  A    between atoms: N_7  and  C_8
REMARK    5  A    between atoms: C_21  and  O_22
REMARK    6  A    between atoms: O_22  and  C_23
REMARK    7  A    between atoms: C_23  and  C_24
REMARK                            x       y       z     vdW  Elec       q    Type
REMARK                         _______ _______ _______ _____ _____    ______ ____
ROOT
ATOM      1  C   UNL     1       0.933  -1.882   1.523  0.00  0.00    +0.000 A 
ATOM      2  C   UNL     1      -0.082  -2.784   1.867  0.00  0.00    +0.000 A 
ATOM      3  C   UNL     1       0.183  -4.166   1.977  0.00  0.00    +0.000 A 
ATOM      4  C   UNL     1      -0.724  -5.124   2.465  0.00  0.00    +0.000 A 
ATOM      5  N   UNL     1      -0.366  -6.404   2.670  0.00  0.00    +0.000 NA
ATOM      6  C   UNL     1       0.890  -6.735   2.362  0.00  0.00    +0.000 A 
ATOM      7  N   UNL     1       1.815  -5.920   1.848  0.00  0.00    +0.000 NA
ATOM      8  C   UNL     1       1.464  -4.645   1.672  0.00  0.00    +0.000 A 
ATOM      9  C   UNL     1       2.412  -3.752   1.194  0.00  0.00    +0.000 A 
ATOM     10  C   UNL     1       2.161  -2.379   1.087  0.00  0.00    +0.000 A 
ENDROOT
BRANCH   1  12
ATOM     11  C   UNL     1       0.077  -0.139   2.849  0.00  0.00    +0.000 C 
ATOM     12  O   UNL     1       0.757  -0.531   1.651  0.00  0.00    +0.000 OA
ENDBRANCH   1  12
BRANCH   4  13
ATOM     13  N   UNL     1      -2.061  -4.742   2.763  0.00  0.00    +0.000 N 
ATOM     14  H   UNL     1      -2.426  -3.961   2.288  0.00  0.00    +0.000 HD
BRANCH  13  15
ATOM     15  C   UNL     1      -2.907  -5.395   3.689  0.00  0.00    +0.000 A 
ATOM     16  C   UNL     1      -4.287  -5.464   3.469  0.00  0.00    +0.000 A 
ATOM     17  C   UNL     1      -5.130  -6.078   4.405  0.00  0.00    +0.000 A 
ATOM     18  C   UNL     1      -4.606  -6.606   5.587  0.00  0.00    +0.000 A 
ATOM     19 CL   UNL     1      -5.700  -7.351   6.697  0.00  0.00    +0.000 Cl
ATOM     20  C   UNL     1      -3.236  -6.511   5.836  0.00  0.00    +0.000 A 
ATOM     21 CL   UNL     1      -2.510  -7.108   7.287  0.00  0.00    +0.000 Cl
ATOM     22  C   UNL     1      -2.400  -5.902   4.895  0.00  0.00    +0.000 A 
ENDBRANCH  13  15
ENDBRANCH   4  13
BRANCH  10  23
ATOM     23  O   UNL     1       3.225  -1.651   0.619  0.00  0.00    +0.000 OA
BRANCH  23  24
ATOM     24  C   UNL     1       2.971  -0.578  -0.308  0.00  0.00    +0.000 C 
BRANCH  24  25
ATOM     25  C   UNL     1       2.126  -1.037  -1.438  0.00  0.00    +0.000 A 
ATOM     26  N   UNL     1       0.834  -0.894  -1.606  0.00  0.00    +0.000 NA
ATOM     27  C   UNL     1       0.585  -1.697  -2.680  0.00  0.00    +0.000 A 
ATOM     28  N   UNL     1      -0.702  -1.914  -3.039  0.00  0.00    +0.000 N 
ATOM     29  C   UNL     1      -1.048  -3.249  -3.550  0.00  0.00    +0.000 C 
ATOM     30  C   UNL     1      -2.384  -3.170  -4.301  0.00  0.00    +0.000 C 
ATOM     31  O   UNL     1      -3.427  -2.647  -3.460  0.00  0.00    +0.000 OA
ATOM     32  C   UNL     1      -3.083  -1.327  -3.005  0.00  0.00    +0.000 C 
ATOM     33  C   UNL     1      -1.769  -1.330  -2.212  0.00  0.00    +0.000 C 
ATOM     34  N   UNL     1       1.689  -2.217  -3.239  0.00  0.00    +0.000 NA
ATOM     35  O   UNL     1       2.720  -1.775  -2.411  0.00  0.00    +0.000 OA
ENDBRANCH  24  25
ENDBRANCH  23  24
ENDBRANCH  10  23
TORSDOF 6
