MODEL 1
REMARK VINA RESULT:    -9.561      0.000      0.000
REMARK INTER + INTRA:         -12.804
REMARK INTER:                 -12.356
REMARK INTRA:                  -0.449
REMARK UNBOUND:                -0.449
REMARK  Name = 
REMARK  7 active torsions:
REMARK  status: ('A' for Active; 'I' for Inactive)
REMARK    1  A    between atoms: C_2  and  C_3
REMARK    2  A    between atoms: N_5  and  C_6
REMARK    3  A    between atoms: C_10  and  N_11
REMARK    4  A    between atoms: C_15  and  C_16
REMARK    5  A    between atoms: N_21  and  C_22
REMARK    6  A    between atoms: N_25  and  C_26
REMARK    7  A    between atoms: N_29  and  C_30
REMARK                            x       y       z     vdW  Elec       q    Type
REMARK                         _______ _______ _______ _____ _____    ______ ____
ROOT
ATOM      1  N   UNL     1      23.691   3.183  50.303  0.00  0.00    +0.000 N 
ATOM      2  C   UNL     1      22.850   2.299  49.633  0.00  0.00    +0.000 A 
ATOM      3  O   UNL     1      22.559   1.160  49.997  0.00  0.00    +0.000 OA
ATOM      4  C   UNL     1      22.288   2.747  48.339  0.00  0.00    +0.000 A 
ATOM      5  C   UNL     1      22.519   3.961  47.828  0.00  0.00    +0.000 A 
ATOM      6  C   UNL     1      21.929   4.395  46.520  0.00  0.00    +0.000 C 
ATOM      7  C   UNL     1      23.390   4.862  48.585  0.00  0.00    +0.000 A 
ATOM      8  C   UNL     1      23.680   6.141  48.165  0.00  0.00    +0.000 A 
ATOM      9  N   UNL     1      24.509   6.969  48.808  0.00  0.00    +0.000 NA
ATOM     10  C   UNL     1      25.093   6.520  49.923  0.00  0.00    +0.000 A 
ATOM     11  N   UNL     1      26.098   7.283  50.530  0.00  0.00    +0.000 N 
ATOM     12  N   UNL     1      24.832   5.316  50.453  0.00  0.00    +0.000 NA
ATOM     13  C   UNL     1      24.001   4.481  49.779  0.00  0.00    +0.000 A 
ATOM     14  H   UNL     1      26.309   7.067  51.467  0.00  0.00    +0.000 HD
ENDROOT
BRANCH   1  19
ATOM     15  C   UNL     1      26.077   1.536  52.686  0.00  0.00    +0.000 A 
ATOM     16  C   UNL     1      25.679   2.131  53.881  0.00  0.00    +0.000 A 
ATOM     17  C   UNL     1      24.580   2.992  53.919  0.00  0.00    +0.000 A 
ATOM     18  C   UNL     1      23.870   3.283  52.755  0.00  0.00    +0.000 A 
ATOM     19  C   UNL     1      24.291   2.759  51.530  0.00  0.00    +0.000 A 
ATOM     20  C   UNL     1      25.402   1.888  51.508  0.00  0.00    +0.000 A 
BRANCH  15  23
ATOM     21  C   UNL     1      27.166  -0.646  53.204  0.00  0.00    +0.000 C 
ATOM     22  O   UNL     1      26.293  -1.149  53.897  0.00  0.00    +0.000 OA
ATOM     23  N   UNL     1      27.133   0.597  52.598  0.00  0.00    +0.000 N 
ATOM     24  H   UNL     1      27.914   0.851  52.057  0.00  0.00    +0.000 HD
BRANCH  21  26
ATOM     25  C   UNL     1      29.562  -1.072  53.499  0.00  0.00    +0.000 C 
ATOM     26  C   UNL     1      28.412  -1.406  52.898  0.00  0.00    +0.000 C 
ENDBRANCH  21  26
ENDBRANCH  15  23
ENDBRANCH   1  19
BRANCH  11  27
ATOM     27  C   UNL     1      26.810   8.284  49.967  0.00  0.00    +0.000 A 
ATOM     28  C   UNL     1      26.695   9.680  50.120  0.00  0.00    +0.000 A 
ATOM     29  N   UNL     1      27.525  10.351  49.318  0.00  0.00    +0.000 NA
ATOM     30  N   UNL     1      28.209   9.381  48.674  0.00  0.00    +0.000 N 
ATOM     31  C   UNL     1      27.805   8.121  49.035  0.00  0.00    +0.000 A 
BRANCH  30  32
ATOM     32  C   UNL     1      29.188   9.753  47.649  0.00  0.00    +0.000 C 
ATOM     33  C   UNL     1      29.481   8.633  46.644  0.00  0.00    +0.000 C 
ATOM     34  C   UNL     1      30.205   7.470  47.321  0.00  0.00    +0.000 C 
ATOM     35  N   UNL     1      31.440   7.886  47.994  0.00  0.00    +0.000 N 
ATOM     36  C   UNL     1      31.982   6.753  48.759  0.00  0.00    +0.000 C 
ATOM     37  C   UNL     1      31.265   9.036  48.896  0.00  0.00    +0.000 C 
ATOM     38  C   UNL     1      30.538  10.204  48.231  0.00  0.00    +0.000 C 
ATOM     39  H   UNL     1      32.085   8.181  47.262  0.00  0.00    +0.000 HD
ENDBRANCH  30  32
ENDBRANCH  11  27
TORSDOF 5
ENDMDL
MODEL 2
REMARK VINA RESULT:    -9.048      2.898      4.371
REMARK INTER + INTRA:         -12.141
REMARK INTER:                 -11.790
REMARK INTRA:                  -0.351
REMARK UNBOUND:                -0.449
REMARK  Name = 
REMARK  7 active torsions:
REMARK  status: ('A' for Active; 'I' for Inactive)
REMARK    1  A    between atoms: C_2  and  C_3
REMARK    2  A    between atoms: N_5  and  C_6
REMARK    3  A    between atoms: C_10  and  N_11
REMARK    4  A    between atoms: C_15  and  C_16
REMARK    5  A    between atoms: N_21  and  C_22
REMARK    6  A    between atoms: N_25  and  C_26
REMARK    7  A    between atoms: N_29  and  C_30
REMARK                            x       y       z     vdW  Elec       q    Type
REMARK                         _______ _______ _______ _____ _____    ______ ____
ROOT
ATOM      1  N   UNL     1      20.532   0.996  51.723  0.00  0.00    +0.000 N 
ATOM      2  C   UNL     1      19.292   0.491  51.337  0.00  0.00    +0.000 A 
ATOM      3  O   UNL     1      18.741  -0.507  51.799  0.00  0.00    +0.000 OA
ATOM      4  C   UNL     1      18.589   1.190  50.238  0.00  0.00    +0.000 A 
ATOM      5  C   UNL     1      19.072   2.290  49.650  0.00  0.00    +0.000 A 
ATOM      6  C   UNL     1      18.335   2.985  48.545  0.00  0.00    +0.000 C 
ATOM      7  C   UNL     1      20.367   2.793  50.109  0.00  0.00    +0.000 A 
ATOM      8  C   UNL     1      20.950   3.927  49.590  0.00  0.00    +0.000 A 
ATOM      9  N   UNL     1      22.152   4.383  49.954  0.00  0.00    +0.000 NA
ATOM     10  C   UNL     1      22.827   3.690  50.876  0.00  0.00    +0.000 A 
ATOM     11  N   UNL     1      24.156   4.029  51.158  0.00  0.00    +0.000 N 
ATOM     12  N   UNL     1      22.326   2.609  51.491  0.00  0.00    +0.000 NA
ATOM     13  C   UNL     1      21.110   2.148  51.097  0.00  0.00    +0.000 A 
ATOM     14  H   UNL     1      24.524   3.691  52.005  0.00  0.00    +0.000 HD
ENDROOT
BRANCH   1  19
ATOM     15  C   UNL     1      23.383  -0.611  53.560  0.00  0.00    +0.000 A 
ATOM     16  C   UNL     1      22.808  -0.764  54.820  0.00  0.00    +0.000 A 
ATOM     17  C   UNL     1      21.469  -0.430  55.039  0.00  0.00    +0.000 A 
ATOM     18  C   UNL     1      20.689   0.079  54.000  0.00  0.00    +0.000 A 
ATOM     19  C   UNL     1      21.259   0.312  52.747  0.00  0.00    +0.000 A 
ATOM     20  C   UNL     1      22.613  -0.034  52.540  0.00  0.00    +0.000 A 
BRANCH  15  23
ATOM     21  C   UNL     1      25.848  -0.250  53.475  0.00  0.00    +0.000 C 
ATOM     22  O   UNL     1      25.909   0.863  53.976  0.00  0.00    +0.000 OA
ATOM     23  N   UNL     1      24.709  -1.004  53.257  0.00  0.00    +0.000 N 
ATOM     24  H   UNL     1      24.832  -1.893  52.854  0.00  0.00    +0.000 HD
BRANCH  21  26
ATOM     25  C   UNL     1      27.020  -2.150  52.458  0.00  0.00    +0.000 C 
ATOM     26  C   UNL     1      27.096  -0.957  53.065  0.00  0.00    +0.000 C 
ENDBRANCH  21  26
ENDBRANCH  15  23
ENDBRANCH   1  19
BRANCH  11  27
ATOM     27  C   UNL     1      24.985   4.771  50.392  0.00  0.00    +0.000 A 
ATOM     28  C   UNL     1      25.938   4.373  49.434  0.00  0.00    +0.000 A 
ATOM     29  N   UNL     1      26.636   5.404  48.950  0.00  0.00    +0.000 NA
ATOM     30  N   UNL     1      26.100   6.477  49.568  0.00  0.00    +0.000 N 
ATOM     31  C   UNL     1      25.104   6.138  50.448  0.00  0.00    +0.000 A 
BRANCH  30  32
ATOM     32  C   UNL     1      26.666   7.806  49.320  0.00  0.00    +0.000 C 
ATOM     33  C   UNL     1      25.711   8.954  49.663  0.00  0.00    +0.000 C 
ATOM     34  C   UNL     1      24.517   8.972  48.710  0.00  0.00    +0.000 C 
ATOM     35  N   UNL     1      24.918   9.046  47.300  0.00  0.00    +0.000 N 
ATOM     36  C   UNL     1      23.731   8.886  46.449  0.00  0.00    +0.000 C 
ATOM     37  C   UNL     1      25.924   8.043  46.917  0.00  0.00    +0.000 C 
ATOM     38  C   UNL     1      27.122   8.013  47.866  0.00  0.00    +0.000 C 
ATOM     39  H   UNL     1      25.348   9.961  47.168  0.00  0.00    +0.000 HD
ENDBRANCH  30  32
ENDBRANCH  11  27
TORSDOF 5
ENDMDL
MODEL 3
REMARK VINA RESULT:    -8.992      5.047      8.205
REMARK INTER + INTRA:         -12.070
REMARK INTER:                 -11.206
REMARK INTRA:                  -0.863
REMARK UNBOUND:                -0.449
REMARK  Name = 
REMARK  7 active torsions:
REMARK  status: ('A' for Active; 'I' for Inactive)
REMARK    1  A    between atoms: C_2  and  C_3
REMARK    2  A    between atoms: N_5  and  C_6
REMARK    3  A    between atoms: C_10  and  N_11
REMARK    4  A    between atoms: C_15  and  C_16
REMARK    5  A    between atoms: N_21  and  C_22
REMARK    6  A    between atoms: N_25  and  C_26
REMARK    7  A    between atoms: N_29  and  C_30
REMARK                            x       y       z     vdW  Elec       q    Type
REMARK                         _______ _______ _______ _____ _____    ______ ____
ROOT
ATOM      1  N   UNL     1      19.477   0.220  52.421  0.00  0.00    +0.000 N 
ATOM      2  C   UNL     1      19.240  -0.852  53.277  0.00  0.00    +0.000 A 
ATOM      3  O   UNL     1      18.161  -1.418  53.445  0.00  0.00    +0.000 OA
ATOM      4  C   UNL     1      20.376  -1.329  54.097  0.00  0.00    +0.000 A 
ATOM      5  C   UNL     1      21.604  -0.807  54.010  0.00  0.00    +0.000 A 
ATOM      6  C   UNL     1      22.741  -1.315  54.845  0.00  0.00    +0.000 C 
ATOM      7  C   UNL     1      21.807   0.302  53.077  0.00  0.00    +0.000 A 
ATOM      8  C   UNL     1      23.031   0.903  52.891  0.00  0.00    +0.000 A 
ATOM      9  N   UNL     1      23.237   1.948  52.083  0.00  0.00    +0.000 NA
ATOM     10  C   UNL     1      22.184   2.439  51.422  0.00  0.00    +0.000 A 
ATOM     11  N   UNL     1      22.316   3.634  50.706  0.00  0.00    +0.000 N 
ATOM     12  N   UNL     1      20.962   1.890  51.482  0.00  0.00    +0.000 NA
ATOM     13  C   UNL     1      20.766   0.840  52.320  0.00  0.00    +0.000 A 
ATOM     14  H   UNL     1      21.626   3.818  50.029  0.00  0.00    +0.000 HD
ENDROOT
BRANCH   1  19
ATOM     15  C   UNL     1      16.574   2.374  51.412  0.00  0.00    +0.000 A 
ATOM     16  C   UNL     1      16.427   1.981  50.083  0.00  0.00    +0.000 A 
ATOM     17  C   UNL     1      17.211   0.953  49.552  0.00  0.00    +0.000 A 
ATOM     18  C   UNL     1      18.167   0.313  50.341  0.00  0.00    +0.000 A 
ATOM     19  C   UNL     1      18.387   0.737  51.654  0.00  0.00    +0.000 A 
ATOM     20  C   UNL     1      17.585   1.774  52.178  0.00  0.00    +0.000 A 
BRANCH  15  23
ATOM     21  C   UNL     1      14.669   3.105  52.843  0.00  0.00    +0.000 C 
ATOM     22  O   UNL     1      14.238   2.012  53.182  0.00  0.00    +0.000 OA
ATOM     23  N   UNL     1      15.758   3.353  52.028  0.00  0.00    +0.000 N 
ATOM     24  H   UNL     1      15.985   4.295  51.861  0.00  0.00    +0.000 HD
BRANCH  21  26
ATOM     25  C   UNL     1      12.749   4.337  53.745  0.00  0.00    +0.000 C 
ATOM     26  C   UNL     1      14.031   4.353  53.353  0.00  0.00    +0.000 C 
ENDBRANCH  21  26
ENDBRANCH  15  23
ENDBRANCH   1  19
BRANCH  11  27
ATOM     27  C   UNL     1      23.289   4.561  50.844  0.00  0.00    +0.000 A 
ATOM     28  C   UNL     1      23.521   5.489  51.878  0.00  0.00    +0.000 A 
ATOM     29  N   UNL     1      24.539   6.310  51.608  0.00  0.00    +0.000 NA
ATOM     30  N   UNL     1      24.993   5.881  50.412  0.00  0.00    +0.000 N 
ATOM     31  C   UNL     1      24.264   4.830  49.916  0.00  0.00    +0.000 A 
BRANCH  30  32
ATOM     32  C   UNL     1      26.093   6.598  49.762  0.00  0.00    +0.000 C 
ATOM     33  C   UNL     1      26.204   8.067  50.187  0.00  0.00    +0.000 C 
ATOM     34  C   UNL     1      25.006   8.871  49.685  0.00  0.00    +0.000 C 
ATOM     35  N   UNL     1      24.825   8.772  48.232  0.00  0.00    +0.000 N 
ATOM     36  C   UNL     1      23.564   9.425  47.854  0.00  0.00    +0.000 C 
ATOM     37  C   UNL     1      24.822   7.390  47.728  0.00  0.00    +0.000 C 
ATOM     38  C   UNL     1      26.015   6.575  48.227  0.00  0.00    +0.000 C 
ATOM     39  H   UNL     1      25.626   9.239  47.807  0.00  0.00    +0.000 HD
ENDBRANCH  30  32
ENDBRANCH  11  27
TORSDOF 5
ENDMDL
MODEL 4
REMARK VINA RESULT:    -8.872      2.899      5.796
REMARK INTER + INTRA:         -11.915
REMARK INTER:                 -11.004
REMARK INTRA:                  -0.911
REMARK UNBOUND:                -0.449
REMARK  Name = 
REMARK  7 active torsions:
REMARK  status: ('A' for Active; 'I' for Inactive)
REMARK    1  A    between atoms: C_2  and  C_3
REMARK    2  A    between atoms: N_5  and  C_6
REMARK    3  A    between atoms: C_10  and  N_11
REMARK    4  A    between atoms: C_15  and  C_16
REMARK    5  A    between atoms: N_21  and  C_22
REMARK    6  A    between atoms: N_25  and  C_26
REMARK    7  A    between atoms: N_29  and  C_30
REMARK                            x       y       z     vdW  Elec       q    Type
REMARK                         _______ _______ _______ _____ _____    ______ ____
ROOT
ATOM      1  N   UNL     1      22.985   1.555  51.286  0.00  0.00    +0.000 N 
ATOM      2  C   UNL     1      22.982   0.539  52.238  0.00  0.00    +0.000 A 
ATOM      3  O   UNL     1      22.027  -0.183  52.524  0.00  0.00    +0.000 OA
ATOM      4  C   UNL     1      24.226   0.334  53.014  0.00  0.00    +0.000 A 
ATOM      5  C   UNL     1      25.339   1.045  52.803  0.00  0.00    +0.000 A 
ATOM      6  C   UNL     1      26.589   0.811  53.596  0.00  0.00    +0.000 C 
ATOM      7  C   UNL     1      25.297   2.084  51.773  0.00  0.00    +0.000 A 
ATOM      8  C   UNL     1      26.387   2.862  51.457  0.00  0.00    +0.000 A 
ATOM      9  N   UNL     1      26.366   3.850  50.558  0.00  0.00    +0.000 NA
ATOM     10  C   UNL     1      25.211   4.096  49.933  0.00  0.00    +0.000 A 
ATOM     11  N   UNL     1      25.096   5.228  49.117  0.00  0.00    +0.000 N 
ATOM     12  N   UNL     1      24.106   3.359  50.119  0.00  0.00    +0.000 NA
ATOM     13  C   UNL     1      24.140   2.370  51.049  0.00  0.00    +0.000 A 
ATOM     14  H   UNL     1      24.349   5.233  48.476  0.00  0.00    +0.000 HD
ENDROOT
BRANCH   1  19
ATOM     15  C   UNL     1      19.634   2.986  50.387  0.00  0.00    +0.000 A 
ATOM     16  C   UNL     1      19.542   2.579  49.058  0.00  0.00    +0.000 A 
ATOM     17  C   UNL     1      20.525   1.765  48.491  0.00  0.00    +0.000 A 
ATOM     18  C   UNL     1      21.627   1.358  49.244  0.00  0.00    +0.000 A 
ATOM     19  C   UNL     1      21.782   1.811  50.556  0.00  0.00    +0.000 A 
ATOM     20  C   UNL     1      20.777   2.631  51.117  0.00  0.00    +0.000 A 
BRANCH  15  23
ATOM     21  C   UNL     1      17.416   3.265  51.491  0.00  0.00    +0.000 C 
ATOM     22  O   UNL     1      17.008   2.114  51.422  0.00  0.00    +0.000 OA
ATOM     23  N   UNL     1      18.632   3.745  51.040  0.00  0.00    +0.000 N 
ATOM     24  H   UNL     1      18.817   4.700  51.184  0.00  0.00    +0.000 HD
BRANCH  21  26
ATOM     25  C   UNL     1      15.434   3.981  52.746  0.00  0.00    +0.000 C 
ATOM     26  C   UNL     1      16.591   4.315  52.156  0.00  0.00    +0.000 C 
ENDBRANCH  21  26
ENDBRANCH  15  23
ENDBRANCH   1  19
BRANCH  11  27
ATOM     27  C   UNL     1      25.901   6.314  49.115  0.00  0.00    +0.000 A 
ATOM     28  C   UNL     1      26.000   7.373  50.038  0.00  0.00    +0.000 A 
ATOM     29  N   UNL     1      26.856   8.318  49.639  0.00  0.00    +0.000 NA
ATOM     30  N   UNL     1      27.342   7.844  48.472  0.00  0.00    +0.000 N 
ATOM     31  C   UNL     1      26.788   6.639  48.120  0.00  0.00    +0.000 A 
BRANCH  30  32
ATOM     32  C   UNL     1      28.285   8.660  47.703  0.00  0.00    +0.000 C 
ATOM     33  C   UNL     1      29.159   7.846  46.742  0.00  0.00    +0.000 C 
ATOM     34  C   UNL     1      30.125   6.947  47.513  0.00  0.00    +0.000 C 
ATOM     35  N   UNL     1      30.964   7.695  48.457  0.00  0.00    +0.000 N 
ATOM     36  C   UNL     1      31.735   6.749  49.275  0.00  0.00    +0.000 C 
ATOM     37  C   UNL     1      30.204   8.590  49.343  0.00  0.00    +0.000 C 
ATOM     38  C   UNL     1      29.231   9.492  48.583  0.00  0.00    +0.000 C 
ATOM     39  H   UNL     1      31.577   8.286  47.896  0.00  0.00    +0.000 HD
ENDBRANCH  30  32
ENDBRANCH  11  27
TORSDOF 5
ENDMDL
MODEL 5
REMARK VINA RESULT:    -8.812      2.205      5.497
REMARK INTER + INTRA:         -11.836
REMARK INTER:                 -11.663
REMARK INTRA:                  -0.174
REMARK UNBOUND:                -0.449
REMARK  Name = 
REMARK  7 active torsions:
REMARK  status: ('A' for Active; 'I' for Inactive)
REMARK    1  A    between atoms: C_2  and  C_3
REMARK    2  A    between atoms: N_5  and  C_6
REMARK    3  A    between atoms: C_10  and  N_11
REMARK    4  A    between atoms: C_15  and  C_16
REMARK    5  A    between atoms: N_21  and  C_22
REMARK    6  A    between atoms: N_25  and  C_26
REMARK    7  A    between atoms: N_29  and  C_30
REMARK                            x       y       z     vdW  Elec       q    Type
REMARK                         _______ _______ _______ _____ _____    ______ ____
ROOT
ATOM      1  N   UNL     1      23.484   0.967  52.026  0.00  0.00    +0.000 N 
ATOM      2  C   UNL     1      23.814  -0.128  52.821  0.00  0.00    +0.000 A 
ATOM      3  O   UNL     1      23.024  -0.942  53.296  0.00  0.00    +0.000 OA
ATOM      4  C   UNL     1      25.242  -0.307  53.168  0.00  0.00    +0.000 A 
ATOM      5  C   UNL     1      26.207   0.502  52.717  0.00  0.00    +0.000 A 
ATOM      6  C   UNL     1      27.647   0.294  53.075  0.00  0.00    +0.000 C 
ATOM      7  C   UNL     1      25.809   1.624  51.865  0.00  0.00    +0.000 A 
ATOM      8  C   UNL     1      26.718   2.507  51.327  0.00  0.00    +0.000 A 
ATOM      9  N   UNL     1      26.381   3.568  50.587  0.00  0.00    +0.000 NA
ATOM     10  C   UNL     1      25.082   3.782  50.361  0.00  0.00    +0.000 A 
ATOM     11  N   UNL     1      24.675   4.970  49.744  0.00  0.00    +0.000 N 
ATOM     12  N   UNL     1      24.119   2.949  50.784  0.00  0.00    +0.000 NA
ATOM     13  C   UNL     1      24.476   1.886  51.549  0.00  0.00    +0.000 A 
ATOM     14  H   UNL     1      23.771   4.976  49.356  0.00  0.00    +0.000 HD
ENDROOT
BRANCH   1  19
ATOM     15  C   UNL     1      20.362   1.555  50.029  0.00  0.00    +0.000 A 
ATOM     16  C   UNL     1      19.399   1.362  51.017  0.00  0.00    +0.000 A 
ATOM     17  C   UNL     1      19.773   1.133  52.343  0.00  0.00    +0.000 A 
ATOM     18  C   UNL     1      21.120   1.080  52.698  0.00  0.00    +0.000 A 
ATOM     19  C   UNL     1      22.107   1.196  51.717  0.00  0.00    +0.000 A 
ATOM     20  C   UNL     1      21.714   1.430  50.380  0.00  0.00    +0.000 A 
BRANCH  15  23
ATOM     21  C   UNL     1      20.105   3.123  48.107  0.00  0.00    +0.000 C 
ATOM     22  O   UNL     1      20.453   4.164  48.646  0.00  0.00    +0.000 OA
ATOM     23  N   UNL     1      20.046   1.868  48.684  0.00  0.00    +0.000 N 
ATOM     24  H   UNL     1      19.757   1.124  48.108  0.00  0.00    +0.000 HD
BRANCH  21  26
ATOM     25  C   UNL     1      20.389   3.896  45.797  0.00  0.00    +0.000 C 
ATOM     26  C   UNL     1      19.729   3.115  46.664  0.00  0.00    +0.000 C 
ENDBRANCH  21  26
ENDBRANCH  15  23
ENDBRANCH   1  19
BRANCH  11  27
ATOM     27  C   UNL     1      25.392   6.110  49.623  0.00  0.00    +0.000 A 
ATOM     28  C   UNL     1      25.573   7.171  50.531  0.00  0.00    +0.000 A 
ATOM     29  N   UNL     1      26.282   8.174  50.007  0.00  0.00    +0.000 NA
ATOM     30  N   UNL     1      26.596   7.738  48.769  0.00  0.00    +0.000 N 
ATOM     31  C   UNL     1      26.075   6.499  48.497  0.00  0.00    +0.000 A 
BRANCH  30  32
ATOM     32  C   UNL     1      27.338   8.620  47.864  0.00  0.00    +0.000 C 
ATOM     33  C   UNL     1      28.202   7.868  46.845  0.00  0.00    +0.000 C 
ATOM     34  C   UNL     1      29.353   7.141  47.539  0.00  0.00    +0.000 C 
ATOM     35  N   UNL     1      30.184   8.039  48.350  0.00  0.00    +0.000 N 
ATOM     36  C   UNL     1      31.155   7.243  49.114  0.00  0.00    +0.000 C 
ATOM     37  C   UNL     1      29.414   8.882  49.278  0.00  0.00    +0.000 C 
ATOM     38  C   UNL     1      28.258   9.611  48.596  0.00  0.00    +0.000 C 
ATOM     39  H   UNL     1      30.652   8.669  47.698  0.00  0.00    +0.000 HD
ENDBRANCH  30  32
ENDBRANCH  11  27
TORSDOF 5
ENDMDL
MODEL 6
REMARK VINA RESULT:    -8.729      4.882     11.097
REMARK INTER + INTRA:         -11.729
REMARK INTER:                 -11.183
REMARK INTRA:                  -0.546
REMARK UNBOUND:                -0.449
REMARK  Name = 
REMARK  7 active torsions:
REMARK  status: ('A' for Active; 'I' for Inactive)
REMARK    1  A    between atoms: C_2  and  C_3
REMARK    2  A    between atoms: N_5  and  C_6
REMARK    3  A    between atoms: C_10  and  N_11
REMARK    4  A    between atoms: C_15  and  C_16
REMARK    5  A    between atoms: N_21  and  C_22
REMARK    6  A    between atoms: N_25  and  C_26
REMARK    7  A    between atoms: N_29  and  C_30
REMARK                            x       y       z     vdW  Elec       q    Type
REMARK                         _______ _______ _______ _____ _____    ______ ____
ROOT
ATOM      1  N   UNL     1      24.877   2.805  51.440  0.00  0.00    +0.000 N 
ATOM      2  C   UNL     1      26.238   2.519  51.379  0.00  0.00    +0.000 A 
ATOM      3  O   UNL     1      27.108   3.241  50.895  0.00  0.00    +0.000 OA
ATOM      4  C   UNL     1      26.679   1.207  51.904  0.00  0.00    +0.000 A 
ATOM      5  C   UNL     1      25.839   0.328  52.461  0.00  0.00    +0.000 A 
ATOM      6  C   UNL     1      26.312  -0.991  52.994  0.00  0.00    +0.000 C 
ATOM      7  C   UNL     1      24.422   0.687  52.522  0.00  0.00    +0.000 A 
ATOM      8  C   UNL     1      23.472  -0.130  53.092  0.00  0.00    +0.000 A 
ATOM      9  N   UNL     1      22.164   0.148  53.119  0.00  0.00    +0.000 NA
ATOM     10  C   UNL     1      21.760   1.289  52.553  0.00  0.00    +0.000 A 
ATOM     11  N   UNL     1      20.391   1.537  52.402  0.00  0.00    +0.000 N 
ATOM     12  N   UNL     1      22.608   2.186  52.027  0.00  0.00    +0.000 NA
ATOM     13  C   UNL     1      23.931   1.880  51.992  0.00  0.00    +0.000 A 
ATOM     14  H   UNL     1      20.129   2.472  52.240  0.00  0.00    +0.000 HD
ENDROOT
BRANCH   1  19
ATOM     15  C   UNL     1      23.410   5.273  49.022  0.00  0.00    +0.000 A 
ATOM     16  C   UNL     1      23.228   6.365  49.868  0.00  0.00    +0.000 A 
ATOM     17  C   UNL     1      23.668   6.324  51.193  0.00  0.00    +0.000 A 
ATOM     18  C   UNL     1      24.285   5.179  51.697  0.00  0.00    +0.000 A 
ATOM     19  C   UNL     1      24.413   4.043  50.894  0.00  0.00    +0.000 A 
ATOM     20  C   UNL     1      23.966   4.101  49.556  0.00  0.00    +0.000 A 
BRANCH  15  23
ATOM     21  C   UNL     1      21.829   4.918  47.127  0.00  0.00    +0.000 C 
ATOM     22  O   UNL     1      20.844   4.547  47.750  0.00  0.00    +0.000 OA
ATOM     23  N   UNL     1      23.056   5.282  47.652  0.00  0.00    +0.000 N 
ATOM     24  H   UNL     1      23.746   5.573  47.013  0.00  0.00    +0.000 HD
BRANCH  21  26
ATOM     25  C   UNL     1      21.527   3.985  44.880  0.00  0.00    +0.000 C 
ATOM     26  C   UNL     1      21.769   5.059  45.644  0.00  0.00    +0.000 C 
ENDBRANCH  21  26
ENDBRANCH  15  23
ENDBRANCH   1  19
BRANCH  11  27
ATOM     27  C   UNL     1      19.390   0.631  52.457  0.00  0.00    +0.000 A 
ATOM     28  C   UNL     1      19.238  -0.509  53.271  0.00  0.00    +0.000 A 
ATOM     29  N   UNL     1      18.147  -1.214  52.964  0.00  0.00    +0.000 NA
ATOM     30  N   UNL     1      17.569  -0.501  51.973  0.00  0.00    +0.000 N 
ATOM     31  C   UNL     1      18.290   0.616  51.636  0.00  0.00    +0.000 A 
BRANCH  30  32
ATOM     32  C   UNL     1      16.354  -1.014  51.335  0.00  0.00    +0.000 C 
ATOM     33  C   UNL     1      15.752  -0.055  50.301  0.00  0.00    +0.000 C 
ATOM     34  C   UNL     1      15.209   1.202  50.977  0.00  0.00    +0.000 C 
ATOM     35  N   UNL     1      14.228   0.903  52.028  0.00  0.00    +0.000 N 
ATOM     36  C   UNL     1      13.886   2.143  52.739  0.00  0.00    +0.000 C 
ATOM     37  C   UNL     1      14.690  -0.099  53.000  0.00  0.00    +0.000 C 
ATOM     38  C   UNL     1      15.239  -1.361  52.335  0.00  0.00    +0.000 C 
ATOM     39  H   UNL     1      13.413   0.507  51.560  0.00  0.00    +0.000 HD
ENDBRANCH  30  32
ENDBRANCH  11  27
TORSDOF 5
ENDMDL
MODEL 7
REMARK VINA RESULT:    -8.636      4.617      7.688
REMARK INTER + INTRA:         -11.609
REMARK INTER:                 -10.959
REMARK INTRA:                  -0.650
REMARK UNBOUND:                -0.449
REMARK  Name = 
REMARK  7 active torsions:
REMARK  status: ('A' for Active; 'I' for Inactive)
REMARK    1  A    between atoms: C_2  and  C_3
REMARK    2  A    between atoms: N_5  and  C_6
REMARK    3  A    between atoms: C_10  and  N_11
REMARK    4  A    between atoms: C_15  and  C_16
REMARK    5  A    between atoms: N_21  and  C_22
REMARK    6  A    between atoms: N_25  and  C_26
REMARK    7  A    between atoms: N_29  and  C_30
REMARK                            x       y       z     vdW  Elec       q    Type
REMARK                         _______ _______ _______ _____ _____    ______ ____
ROOT
ATOM      1  N   UNL     1      19.775   0.553  52.296  0.00  0.00    +0.000 N 
ATOM      2  C   UNL     1      19.540  -0.500  53.177  0.00  0.00    +0.000 A 
ATOM      3  O   UNL     1      18.460  -1.057  53.367  0.00  0.00    +0.000 OA
ATOM      4  C   UNL     1      20.681  -0.965  53.997  0.00  0.00    +0.000 A 
ATOM      5  C   UNL     1      21.911  -0.450  53.889  0.00  0.00    +0.000 A 
ATOM      6  C   UNL     1      23.053  -0.945  54.725  0.00  0.00    +0.000 C 
ATOM      7  C   UNL     1      22.110   0.638  52.931  0.00  0.00    +0.000 A 
ATOM      8  C   UNL     1      23.336   1.229  52.722  0.00  0.00    +0.000 A 
ATOM      9  N   UNL     1      23.539   2.256  51.890  0.00  0.00    +0.000 NA
ATOM     10  C   UNL     1      22.483   2.737  51.228  0.00  0.00    +0.000 A 
ATOM     11  N   UNL     1      22.614   3.917  50.485  0.00  0.00    +0.000 N 
ATOM     12  N   UNL     1      21.259   2.196  51.310  0.00  0.00    +0.000 NA
ATOM     13  C   UNL     1      21.066   1.165  52.172  0.00  0.00    +0.000 A 
ATOM     14  H   UNL     1      21.919   4.090  49.810  0.00  0.00    +0.000 HD
ENDROOT
BRANCH   1  19
ATOM     15  C   UNL     1      17.008   0.710  49.766  0.00  0.00    +0.000 A 
ATOM     16  C   UNL     1      16.360   1.870  50.183  0.00  0.00    +0.000 A 
ATOM     17  C   UNL     1      16.879   2.643  51.225  0.00  0.00    +0.000 A 
ATOM     18  C   UNL     1      18.050   2.256  51.876  0.00  0.00    +0.000 A 
ATOM     19  C   UNL     1      18.680   1.059  51.528  0.00  0.00    +0.000 A 
ATOM     20  C   UNL     1      18.146   0.290  50.471  0.00  0.00    +0.000 A 
BRANCH  15  23
ATOM     21  C   UNL     1      15.786  -1.204  48.739  0.00  0.00    +0.000 C 
ATOM     22  O   UNL     1      15.316  -1.711  49.748  0.00  0.00    +0.000 OA
ATOM     23  N   UNL     1      16.575  -0.071  48.667  0.00  0.00    +0.000 N 
ATOM     24  H   UNL     1      16.863   0.217  47.771  0.00  0.00    +0.000 HD
BRANCH  21  26
ATOM     25  C   UNL     1      15.003  -3.034  47.305  0.00  0.00    +0.000 C 
ATOM     26  C   UNL     1      15.487  -1.787  47.399  0.00  0.00    +0.000 C 
ENDBRANCH  21  26
ENDBRANCH  15  23
ENDBRANCH   1  19
BRANCH  11  27
ATOM     27  C   UNL     1      23.593   4.842  50.596  0.00  0.00    +0.000 A 
ATOM     28  C   UNL     1      23.839   5.790  51.609  0.00  0.00    +0.000 A 
ATOM     29  N   UNL     1      24.858   6.600  51.313  0.00  0.00    +0.000 NA
ATOM     30  N   UNL     1      25.298   6.145  50.121  0.00  0.00    +0.000 N 
ATOM     31  C   UNL     1      24.560   5.088  49.653  0.00  0.00    +0.000 A 
BRANCH  30  32
ATOM     32  C   UNL     1      26.395   6.844  49.446  0.00  0.00    +0.000 C 
ATOM     33  C   UNL     1      26.619   8.272  49.956  0.00  0.00    +0.000 C 
ATOM     34  C   UNL     1      25.440   9.172  49.589  0.00  0.00    +0.000 C 
ATOM     35  N   UNL     1      25.163   9.183  48.147  0.00  0.00    +0.000 N 
ATOM     36  C   UNL     1      23.921   9.928  47.898  0.00  0.00    +0.000 C 
ATOM     37  C   UNL     1      25.047   7.840  47.557  0.00  0.00    +0.000 C 
ATOM     38  C   UNL     1      26.219   6.929  47.921  0.00  0.00    +0.000 C 
ATOM     39  H   UNL     1      25.961   9.633  47.701  0.00  0.00    +0.000 HD
ENDBRANCH  30  32
ENDBRANCH  11  27
TORSDOF 5
ENDMDL
MODEL 8
REMARK VINA RESULT:    -8.541      6.378     12.102
REMARK INTER + INTRA:         -11.486
REMARK INTER:                 -10.888
REMARK INTRA:                  -0.598
REMARK UNBOUND:                -0.449
REMARK  Name = 
REMARK  7 active torsions:
REMARK  status: ('A' for Active; 'I' for Inactive)
REMARK    1  A    between atoms: C_2  and  C_3
REMARK    2  A    between atoms: N_5  and  C_6
REMARK    3  A    between atoms: C_10  and  N_11
REMARK    4  A    between atoms: C_15  and  C_16
REMARK    5  A    between atoms: N_21  and  C_22
REMARK    6  A    between atoms: N_25  and  C_26
REMARK    7  A    between atoms: N_29  and  C_30
REMARK                            x       y       z     vdW  Elec       q    Type
REMARK                         _______ _______ _______ _____ _____    ______ ____
ROOT
ATOM      1  N   UNL     1      22.622   1.245  51.738  0.00  0.00    +0.000 N 
ATOM      2  C   UNL     1      23.847   0.856  52.273  0.00  0.00    +0.000 A 
ATOM      3  O   UNL     1      24.955   1.225  51.885  0.00  0.00    +0.000 OA
ATOM      4  C   UNL     1      23.822  -0.126  53.379  0.00  0.00    +0.000 A 
ATOM      5  C   UNL     1      22.688  -0.606  53.900  0.00  0.00    +0.000 A 
ATOM      6  C   UNL     1      22.689  -1.594  55.028  0.00  0.00    +0.000 C 
ATOM      7  C   UNL     1      21.426  -0.147  53.318  0.00  0.00    +0.000 A 
ATOM      8  C   UNL     1      20.198  -0.557  53.786  0.00  0.00    +0.000 A 
ATOM      9  N   UNL     1      19.031  -0.194  53.244  0.00  0.00    +0.000 NA
ATOM     10  C   UNL     1      19.065   0.614  52.181  0.00  0.00    +0.000 A 
ATOM     11  N   UNL     1      17.883   0.878  51.478  0.00  0.00    +0.000 N 
ATOM     12  N   UNL     1      20.202   1.123  51.684  0.00  0.00    +0.000 NA
ATOM     13  C   UNL     1      21.379   0.730  52.234  0.00  0.00    +0.000 A 
ATOM     14  H   UNL     1      17.890   1.665  50.888  0.00  0.00    +0.000 HD
ENDROOT
BRANCH   1  19
ATOM     15  C   UNL     1      22.983   4.423  49.775  0.00  0.00    +0.000 A 
ATOM     16  C   UNL     1      22.900   3.920  48.478  0.00  0.00    +0.000 A 
ATOM     17  C   UNL     1      22.636   2.568  48.251  0.00  0.00    +0.000 A 
ATOM     18  C   UNL     1      22.465   1.692  49.324  0.00  0.00    +0.000 A 
ATOM     19  C   UNL     1      22.615   2.154  50.634  0.00  0.00    +0.000 A 
ATOM     20  C   UNL     1      22.879   3.525  50.846  0.00  0.00    +0.000 A 
BRANCH  15  23
ATOM     21  C   UNL     1      24.367   6.394  50.418  0.00  0.00    +0.000 C 
ATOM     22  O   UNL     1      25.459   5.852  50.517  0.00  0.00    +0.000 OA
ATOM     23  N   UNL     1      23.171   5.795  50.067  0.00  0.00    +0.000 N 
ATOM     24  H   UNL     1      22.378   6.377  50.017  0.00  0.00    +0.000 HD
BRANCH  21  26
ATOM     25  C   UNL     1      25.133   8.703  50.108  0.00  0.00    +0.000 C 
ATOM     26  C   UNL     1      24.235   7.862  50.642  0.00  0.00    +0.000 C 
ENDBRANCH  21  26
ENDBRANCH  15  23
ENDBRANCH   1  19
BRANCH  11  27
ATOM     27  C   UNL     1      16.735   0.167  51.523  0.00  0.00    +0.000 A 
ATOM     28  C   UNL     1      16.297  -0.907  50.722  0.00  0.00    +0.000 A 
ATOM     29  N   UNL     1      15.052  -1.288  51.017  0.00  0.00    +0.000 NA
ATOM     30  N   UNL     1      14.700  -0.483  52.042  0.00  0.00    +0.000 N 
ATOM     31  C   UNL     1      15.686   0.410  52.375  0.00  0.00    +0.000 A 
BRANCH  30  32
ATOM     32  C   UNL     1      13.348  -0.579  52.598  0.00  0.00    +0.000 C 
ATOM     33  C   UNL     1      12.245  -0.220  51.596  0.00  0.00    +0.000 C 
ATOM     34  C   UNL     1      12.299   1.263  51.234  0.00  0.00    +0.000 C 
ATOM     35  N   UNL     1      12.222   2.137  52.411  0.00  0.00    +0.000 N 
ATOM     36  C   UNL     1      12.452   3.528  51.998  0.00  0.00    +0.000 C 
ATOM     37  C   UNL     1      13.178   1.785  53.473  0.00  0.00    +0.000 C 
ATOM     38  C   UNL     1      13.136   0.302  53.841  0.00  0.00    +0.000 C 
ATOM     39  H   UNL     1      11.288   2.016  52.803  0.00  0.00    +0.000 HD
ENDBRANCH  30  32
ENDBRANCH  11  27
TORSDOF 5
ENDMDL
MODEL 9
REMARK VINA RESULT:    -8.524      5.836      9.030
REMARK INTER + INTRA:         -11.464
REMARK INTER:                 -11.752
REMARK INTRA:                   0.287
REMARK UNBOUND:                -0.449
REMARK  Name = 
REMARK  7 active torsions:
REMARK  status: ('A' for Active; 'I' for Inactive)
REMARK    1  A    between atoms: C_2  and  C_3
REMARK    2  A    between atoms: N_5  and  C_6
REMARK    3  A    between atoms: C_10  and  N_11
REMARK    4  A    between atoms: C_15  and  C_16
REMARK    5  A    between atoms: N_21  and  C_22
REMARK    6  A    between atoms: N_25  and  C_26
REMARK    7  A    between atoms: N_29  and  C_30
REMARK                            x       y       z     vdW  Elec       q    Type
REMARK                         _______ _______ _______ _____ _____    ______ ____
ROOT
ATOM      1  N   UNL     1      22.500   0.248  53.386  0.00  0.00    +0.000 N 
ATOM      2  C   UNL     1      22.372  -0.796  54.299  0.00  0.00    +0.000 A 
ATOM      3  O   UNL     1      23.259  -1.230  55.032  0.00  0.00    +0.000 OA
ATOM      4  C   UNL     1      21.061  -1.481  54.364  0.00  0.00    +0.000 A 
ATOM      5  C   UNL     1      20.010  -1.110  53.626  0.00  0.00    +0.000 A 
ATOM      6  C   UNL     1      18.690  -1.814  53.718  0.00  0.00    +0.000 C 
ATOM      7  C   UNL     1      20.191   0.009  52.700  0.00  0.00    +0.000 A 
ATOM      8  C   UNL     1      19.173   0.490  51.907  0.00  0.00    +0.000 A 
ATOM      9  N   UNL     1      19.320   1.477  51.018  0.00  0.00    +0.000 NA
ATOM     10  C   UNL     1      20.533   2.024  50.892  0.00  0.00    +0.000 A 
ATOM     11  N   UNL     1      20.774   2.933  49.856  0.00  0.00    +0.000 N 
ATOM     12  N   UNL     1      21.577   1.675  51.658  0.00  0.00    +0.000 NA
ATOM     13  C   UNL     1      21.415   0.659  52.545  0.00  0.00    +0.000 A 
ATOM     14  H   UNL     1      21.568   3.507  49.952  0.00  0.00    +0.000 HD
ENDROOT
BRANCH   1  19
ATOM     15  C   UNL     1      26.199   0.724  52.961  0.00  0.00    +0.000 A 
ATOM     16  C   UNL     1      26.244   2.097  52.731  0.00  0.00    +0.000 A 
ATOM     17  C   UNL     1      25.085   2.873  52.809  0.00  0.00    +0.000 A 
ATOM     18  C   UNL     1      23.857   2.281  53.102  0.00  0.00    +0.000 A 
ATOM     19  C   UNL     1      23.769   0.896  53.263  0.00  0.00    +0.000 A 
ATOM     20  C   UNL     1      24.951   0.125  53.185  0.00  0.00    +0.000 A 
BRANCH  15  23
ATOM     21  C   UNL     1      28.305  -0.146  53.972  0.00  0.00    +0.000 C 
ATOM     22  O   UNL     1      28.313   0.498  55.011  0.00  0.00    +0.000 OA
ATOM     23  N   UNL     1      27.349  -0.101  52.973  0.00  0.00    +0.000 N 
ATOM     24  H   UNL     1      27.482  -0.697  52.201  0.00  0.00    +0.000 HD
BRANCH  21  26
ATOM     25  C   UNL     1      29.079  -2.326  53.157  0.00  0.00    +0.000 C 
ATOM     26  C   UNL     1      29.385  -1.137  53.696  0.00  0.00    +0.000 C 
ENDBRANCH  21  26
ENDBRANCH  15  23
ENDBRANCH   1  19
BRANCH  11  27
ATOM     27  C   UNL     1      20.034   3.108  48.739  0.00  0.00    +0.000 A 
ATOM     28  C   UNL     1      20.342   2.834  47.392  0.00  0.00    +0.000 A 
ATOM     29  N   UNL     1      19.380   3.235  46.557  0.00  0.00    +0.000 NA
ATOM     30  N   UNL     1      18.428   3.732  47.375  0.00  0.00    +0.000 N 
ATOM     31  C   UNL     1      18.786   3.677  48.698  0.00  0.00    +0.000 A 
BRANCH  30  32
ATOM     32  C   UNL     1      17.222   4.329  46.793  0.00  0.00    +0.000 C 
ATOM     33  C   UNL     1      15.981   4.198  47.685  0.00  0.00    +0.000 C 
ATOM     34  C   UNL     1      15.547   2.739  47.803  0.00  0.00    +0.000 C 
ATOM     35  N   UNL     1      15.306   2.111  46.499  0.00  0.00    +0.000 N 
ATOM     36  C   UNL     1      15.062   0.674  46.689  0.00  0.00    +0.000 C 
ATOM     37  C   UNL     1      16.410   2.290  45.543  0.00  0.00    +0.000 C 
ATOM     38  C   UNL     1      16.856   3.746  45.418  0.00  0.00    +0.000 C 
ATOM     39  H   UNL     1      14.491   2.575  46.099  0.00  0.00    +0.000 HD
ENDBRANCH  30  32
ENDBRANCH  11  27
TORSDOF 5
ENDMDL
