REMARK  Name = 
REMARK  10 active torsions:
REMARK  status: ('A' for Active; 'I' for Inactive)
REMARK    1  A    between atoms: C_1  and  O_2
REMARK    2  A    between atoms: O_2  and  C_3
REMARK    3  A    between atoms: C_6  and  C_7
REMARK    4  A    between atoms: C_11  and  O_12
REMARK    5  A    between atoms: C_13  and  O_14
REMARK    6  A    between atoms: O_14  and  C_15
REMARK    7  A    between atoms: C_27  and  O_28
REMARK    8  A    between atoms: C_29  and  O_30
REMARK    9  A    between atoms: O_30  and  C_31
REMARK   10  A    between atoms: C_36  and  O_37
REMARK                            x       y       z     vdW  Elec       q    Type
REMARK                         _______ _______ _______ _____ _____    ______ ____
ROOT
ATOM      1  C   UNL     1      -5.562   1.191   5.360  0.00  0.00    +0.000 A 
ATOM      2  C   UNL     1      -5.269   0.804   6.777  0.00  0.00    +0.000 A 
ATOM      3  C   UNL     1      -5.934   0.884   8.163  0.00  0.00    +0.000 A 
ATOM      4  C   UNL     1      -7.303   0.872   8.405  0.00  0.00    +0.000 A 
ATOM      5  C   UNL     1      -7.804   1.623   9.502  0.00  0.00    +0.000 A 
ATOM      6  C   UNL     1      -6.980   2.384  10.351  0.00  0.00    +0.000 A 
ATOM      7  C   UNL     1      -5.620   2.168  10.285  0.00  0.00    +0.000 A 
ATOM      8  C   UNL     1      -5.122   1.414   9.215  0.00  0.00    +0.000 A 
ATOM      9  O   UNL     1      -3.708   1.430   9.106  0.00  0.00    +0.000 OA
ATOM     10  C   UNL     1      -3.186   1.620   7.829  0.00  0.00    +0.000 A 
ATOM     11  O   UNL     1      -1.989   1.557   7.589  0.00  0.00    +0.000 OA
ATOM     12  C   UNL     1      -4.228   1.739   6.860  0.00  0.00    +0.000 A 
ATOM     13  N   UNL     1      -4.905   2.914   6.429  0.00  0.00    +0.000 N 
ATOM     14  C   UNL     1      -4.849   4.181   7.032  0.00  0.00    +0.000 A 
ATOM     15  C   UNL     1      -5.838   5.054   6.764  0.00  0.00    +0.000 A 
ATOM     16  C   UNL     1      -7.161   4.389   6.947  0.00  0.00    +0.000 A 
ATOM     17  C   UNL     1      -8.030   4.924   7.899  0.00  0.00    +0.000 A 
ATOM     18  C   UNL     1      -9.262   4.336   8.092  0.00  0.00    +0.000 A 
ATOM     19  C   UNL     1      -9.719   3.336   7.226  0.00  0.00    +0.000 A 
ATOM     20  C   UNL     1      -8.786   2.727   6.309  0.00  0.00    +0.000 A 
ATOM     21  C   UNL     1      -7.426   3.170   6.235  0.00  0.00    +0.000 A 
ATOM     22  C   UNL     1      -6.089   2.494   5.657  0.00  0.00    +0.000 A 
ENDROOT
BRANCH   1  26
ATOM     23  C   UNL     1      -1.692   0.992   2.749  0.00  0.00    +0.000 A 
ATOM     24  C   UNL     1      -2.007   0.036   3.680  0.00  0.00    +0.000 A 
ATOM     25  C   UNL     1      -3.253   0.075   4.421  0.00  0.00    +0.000 A 
ATOM     26  C   UNL     1      -4.254   1.092   4.277  0.00  0.00    +0.000 A 
ATOM     27  C   UNL     1      -3.911   2.075   3.319  0.00  0.00    +0.000 A 
ATOM     28  C   UNL     1      -2.673   2.020   2.582  0.00  0.00    +0.000 A 
BRANCH  23  30
ATOM     29  C   UNL     1       0.473   0.210   1.902  0.00  0.00    +0.000 C 
ATOM     30  O   UNL     1      -0.566   1.185   1.992  0.00  0.00    +0.000 OA
ENDBRANCH  23  30
BRANCH  28  31
ATOM     31  O   UNL     1      -2.364   3.020   1.684  0.00  0.00    +0.000 OA
ATOM     32  H   UNL     1      -2.969   3.719   1.534  0.00  0.00    +0.000 HD
ENDBRANCH  28  31
ENDBRANCH   1  26
BRANCH   5  33
ATOM     33  O   UNL     1      -9.157   1.728   9.708  0.00  0.00    +0.000 OA
ATOM     34  H   UNL     1      -9.752   1.243   9.171  0.00  0.00    +0.000 HD
ENDBRANCH   5  33
BRANCH   6  35
ATOM     35  O   UNL     1      -7.592   3.325  11.139  0.00  0.00    +0.000 OA
ATOM     36  C   UNL     1      -6.821   4.452  11.568  0.00  0.00    +0.000 C 
ENDBRANCH   6  35
BRANCH  18  37
ATOM     37  O   UNL     1      -9.957   4.637   9.247  0.00  0.00    +0.000 OA
ATOM     38  H   UNL     1      -9.644   5.308   9.821  0.00  0.00    +0.000 HD
ENDBRANCH  18  37
BRANCH  19  39
ATOM     39  O   UNL     1     -11.087   3.220   7.148  0.00  0.00    +0.000 OA
ATOM     40  C   UNL     1     -11.783   2.105   7.693  0.00  0.00    +0.000 C 
ENDBRANCH  19  39
TORSDOF 7
