
     RDKit          3D

 61 64  0  0  0  0  0  0  0  0999 V2000
    8.5901    2.1328   -1.1141 C   0  0  0  0  0  0  0  0  0  0  0  0
    8.2601    1.0350   -1.7897 C   0  0  0  0  0  0  0  0  0  0  0  0
    7.7836   -0.1925   -1.1273 C   0  0  0  0  0  0  0  0  0  0  0  0
    7.9782   -1.2982   -1.6993 O   0  0  0  0  0  0  0  0  0  0  0  0
    7.0829   -0.1580    0.1298 N   0  0  0  0  0  0  0  0  0  0  0  0
    5.9422    0.7555    0.3027 C   0  0  0  0  0  0  0  0  0  0  0  0
    5.0004    0.2757    1.4167 C   0  0  0  0  0  0  0  0  0  0  0  0
    4.7481   -1.2385    1.2895 C   0  0  0  0  0  0  0  0  0  0  0  0
    3.8827   -1.6813    2.3370 O   0  0  0  0  0  0  0  0  0  0  0  0
    2.5056   -1.4293    2.3713 C   0  0  0  0  0  0  0  0  0  0  0  0
    1.8869   -0.7964    1.3369 N   0  0  0  0  0  0  0  0  0  0  0  0
    0.5501   -0.5507    1.3543 C   0  0  0  0  0  0  0  0  0  0  0  0
   -0.0535    0.1484    0.2567 N   0  0  0  0  0  0  0  0  0  0  0  0
   -1.4720    0.2721    0.0573 C   0  0  0  0  0  0  0  0  0  0  0  0
   -1.9878    1.4388   -0.5131 C   0  0  0  0  0  0  0  0  0  0  0  0
   -3.3602    1.5789   -0.7358 C   0  0  0  0  0  0  0  0  0  0  0  0
   -4.2651    0.5446   -0.3983 C   0  0  0  0  0  0  0  0  0  0  0  0
   -5.7045    0.6878   -0.6151 N   0  0  0  0  0  0  0  0  0  0  0  0
   -6.1923    1.7386   -1.5384 C   0  0  0  0  0  0  0  0  0  0  0  0
   -7.7236    1.8755   -1.6257 C   0  0  0  0  0  0  0  0  0  0  0  0
   -8.4384    0.6042   -1.4676 N   0  0  0  0  0  0  0  0  0  0  0  0
   -8.2400   -0.3076   -2.6082 C   0  0  0  0  0  0  0  0  0  0  0  0
   -8.0964   -0.0023   -0.1761 C   0  0  0  0  0  0  0  0  0  0  0  0
   -6.6083   -0.3438   -0.0623 C   0  0  0  0  0  0  0  0  0  0  0  0
   -3.7214   -0.6431    0.1463 C   0  0  0  0  0  0  0  0  0  0  0  0
   -2.3477   -0.7778    0.3633 C   0  0  0  0  0  0  0  0  0  0  0  0
   -0.1870   -0.9237    2.4361 N   0  0  0  0  0  0  0  0  0  0  0  0
    0.3855   -1.5612    3.4892 C   0  0  0  0  0  0  0  0  0  0  0  0
    1.7535   -1.8335    3.4785 C   0  0  0  0  0  0  0  0  0  0  0  0
    2.5026   -2.6559    4.8375 Cl  0  0  0  0  0  0  0  0  0  0  0  0
    6.0632   -2.0568    1.3365 C   0  0  0  0  0  0  0  0  0  0  0  0
    7.3258   -1.2056    1.1290 C   0  0  0  0  0  0  0  0  0  0  0  0
    8.9662    2.9984   -1.6438 H   0  0  0  0  0  0  0  0  0  0  0  0
    8.5275    2.1742   -0.0349 H   0  0  0  0  0  0  0  0  0  0  0  0
    8.4182    1.0173   -2.8611 H   0  0  0  0  0  0  0  0  0  0  0  0
    6.3016    1.7768    0.5451 H   0  0  0  0  0  0  0  0  0  0  0  0
    5.3635    0.8054   -0.6460 H   0  0  0  0  0  0  0  0  0  0  0  0
    5.4488    0.4982    2.4094 H   0  0  0  0  0  0  0  0  0  0  0  0
    4.0432    0.8345    1.3458 H   0  0  0  0  0  0  0  0  0  0  0  0
    4.2608   -1.4328    0.3070 H   0  0  0  0  0  0  0  0  0  0  0  0
    0.5822    0.6660   -0.3915 H   0  0  0  0  0  0  0  0  0  0  0  0
   -1.3224    2.2515   -0.7771 H   0  0  0  0  0  0  0  0  0  0  0  0
   -3.6883    2.5083   -1.1730 H   0  0  0  0  0  0  0  0  0  0  0  0
   -5.7856    1.5401   -2.5546 H   0  0  0  0  0  0  0  0  0  0  0  0
   -5.8238    2.7314   -1.2054 H   0  0  0  0  0  0  0  0  0  0  0  0
   -8.0708    2.5809   -0.8369 H   0  0  0  0  0  0  0  0  0  0  0  0
   -7.9971    2.3474   -2.5953 H   0  0  0  0  0  0  0  0  0  0  0  0
   -7.1671   -0.5492   -2.7662 H   0  0  0  0  0  0  0  0  0  0  0  0
   -8.8019   -1.2520   -2.4429 H   0  0  0  0  0  0  0  0  0  0  0  0
   -8.6381    0.1588   -3.5345 H   0  0  0  0  0  0  0  0  0  0  0  0
   -8.7006   -0.9225   -0.0182 H   0  0  0  0  0  0  0  0  0  0  0  0
   -8.3743    0.6964    0.6447 H   0  0  0  0  0  0  0  0  0  0  0  0
   -6.3842   -0.4929    1.0172 H   0  0  0  0  0  0  0  0  0  0  0  0
   -6.4271   -1.3063   -0.5893 H   0  0  0  0  0  0  0  0  0  0  0  0
   -4.3435   -1.4894    0.3965 H   0  0  0  0  0  0  0  0  0  0  0  0
   -1.9697   -1.7161    0.7461 H   0  0  0  0  0  0  0  0  0  0  0  0
   -0.2236   -1.8522    4.3345 H   0  0  0  0  0  0  0  0  0  0  0  0
    6.1563   -2.5836    2.3118 H   0  0  0  0  0  0  0  0  0  0  0  0
    6.0248   -2.8400    0.5481 H   0  0  0  0  0  0  0  0  0  0  0  0
    8.1770   -1.8579    0.8352 H   0  0  0  0  0  0  0  0  0  0  0  0
    7.6045   -0.7230    2.0910 H   0  0  0  0  0  0  0  0  0  0  0  0
  1  2  2  0
  2  3  1  0
  3  4  2  0
  3  5  1  0
  5  6  1  0
  6  7  1  0
  7  8  1  0
  8  9  1  0
  9 10  1  0
 10 11  2  0
 11 12  1  0
 12 13  1  0
 13 14  1  0
 14 15  2  0
 15 16  1  0
 16 17  2  0
 17 18  1  0
 18 19  1  0
 19 20  1  0
 20 21  1  0
 21 22  1  0
 21 23  1  0
 23 24  1  0
 17 25  1  0
 25 26  2  0
 12 27  2  0
 27 28  1  0
 28 29  2  0
 29 30  1  0
  8 31  1  0
 31 32  1  0
 32  5  1  0
 29 10  1  0
 26 14  1  0
 24 18  1  0
  1 33  1  0
  1 34  1  0
  2 35  1  0
  6 36  1  0
  6 37  1  0
  7 38  1  0
  7 39  1  0
  8 40  1  0
 13 41  1  0
 15 42  1  0
 16 43  1  0
 19 44  1  0
 19 45  1  0
 20 46  1  0
 20 47  1  0
 22 48  1  0
 22 49  1  0
 22 50  1  0
 23 51  1  0
 23 52  1  0
 24 53  1  0
 24 54  1  0
 25 55  1  0
 26 56  1  0
 28 57  1  0
 31 58  1  0
 31 59  1  0
 32 60  1  0
 32 61  1  0
M  END
