
     RDKit          3D

 50 52  0  0  0  0  0  0  0  0999 V2000
   -2.9773   -3.2053    1.7126 C   0  0  0  0  0  0  0  0  0  0  0  0
   -1.5604   -3.3119    1.7279 O   0  0  0  0  0  0  0  0  0  0  0  0
   -0.7244   -2.7079    0.7820 C   0  0  0  0  0  0  0  0  0  0  0  0
    0.0693   -3.5629    0.0017 C   0  0  0  0  0  0  0  0  0  0  0  0
    0.9993   -3.0519   -0.9066 C   0  0  0  0  0  0  0  0  0  0  0  0
    1.7708   -3.8972   -1.6466 N   0  0  0  0  0  0  0  0  0  0  0  0
    2.6784   -3.4165   -2.5356 C   0  0  0  0  0  0  0  0  0  0  0  0
    2.8337   -2.0762   -2.6930 N   0  0  0  0  0  0  0  0  0  0  0  0
    2.1132   -1.1881   -1.9592 C   0  0  0  0  0  0  0  0  0  0  0  0
    2.3062    0.2163   -2.1632 N   0  0  0  0  0  0  0  0  0  0  0  0
    3.0100    1.0278   -1.2044 C   0  0  0  0  0  0  0  0  0  0  0  0
    4.0564    0.4904   -0.4301 C   0  0  0  0  0  0  0  0  0  0  0  0
    4.6606    1.2562    0.5703 C   0  0  0  0  0  0  0  0  0  0  0  0
    4.2188    2.5592    0.8154 C   0  0  0  0  0  0  0  0  0  0  0  0
    3.1860    3.1085    0.0450 C   0  0  0  0  0  0  0  0  0  0  0  0
    2.6262    4.7423    0.3776 Cl  0  0  0  0  0  0  0  0  0  0  0  0
    2.5857    2.3481   -0.9690 C   0  0  0  0  0  0  0  0  0  0  0  0
    1.5534    2.8748   -1.6838 F   0  0  0  0  0  0  0  0  0  0  0  0
    1.1550   -1.6631   -1.0414 C   0  0  0  0  0  0  0  0  0  0  0  0
    0.3755   -0.7990   -0.2531 C   0  0  0  0  0  0  0  0  0  0  0  0
   -0.5818   -1.2991    0.6495 C   0  0  0  0  0  0  0  0  0  0  0  0
   -1.2586   -0.3155    1.5871 C   0  0  0  0  0  0  0  0  0  0  0  0
   -2.2428    0.5858    0.9388 N   0  0  0  0  0  0  0  0  0  0  0  0
   -3.3918   -0.0817    0.3088 C   0  0  0  0  0  0  0  0  0  0  0  0
   -1.7045    1.7850    0.2424 C   0  0  1  0  0  0  0  0  0  0  0  0
   -1.7343    1.6515   -1.2997 C   0  0  0  0  0  0  0  0  0  0  0  0
   -2.4632    3.0196    0.6812 C   0  0  0  0  0  0  0  0  0  0  0  0
   -3.1341    3.0675    1.9475 N   0  0  0  0  0  0  0  0  0  0  0  0
   -2.4428    4.0539   -0.0348 O   0  0  0  0  0  0  0  0  0  0  0  0
   -3.3481   -3.0069    0.6860 H   0  0  0  0  0  0  0  0  0  0  0  0
   -3.3185   -2.4221    2.4153 H   0  0  0  0  0  0  0  0  0  0  0  0
   -3.4095   -4.1657    2.0606 H   0  0  0  0  0  0  0  0  0  0  0  0
   -0.0266   -4.6349    0.1203 H   0  0  0  0  0  0  0  0  0  0  0  0
    3.2805   -4.1024   -3.1192 H   0  0  0  0  0  0  0  0  0  0  0  0
    1.7237    0.6803   -2.8975 H   0  0  0  0  0  0  0  0  0  0  0  0
    4.3915   -0.5266   -0.5871 H   0  0  0  0  0  0  0  0  0  0  0  0
    5.4589    0.8325    1.1685 H   0  0  0  0  0  0  0  0  0  0  0  0
    4.6735    3.1382    1.6083 H   0  0  0  0  0  0  0  0  0  0  0  0
    0.5482    0.2633   -0.3053 H   0  0  0  0  0  0  0  0  0  0  0  0
   -0.4751    0.2897    2.1021 H   0  0  0  0  0  0  0  0  0  0  0  0
   -1.7540   -0.8427    2.4222 H   0  0  0  0  0  0  0  0  0  0  0  0
   -3.9576   -0.6523    1.0678 H   0  0  0  0  0  0  0  0  0  0  0  0
   -3.0636   -0.7627   -0.5037 H   0  0  0  0  0  0  0  0  0  0  0  0
   -4.1057    0.6651   -0.1004 H   0  0  0  0  0  0  0  0  0  0  0  0
   -0.6481    1.9639    0.5434 H   0  0  0  0  0  0  0  0  0  0  0  0
   -1.0804    2.4183   -1.7681 H   0  0  0  0  0  0  0  0  0  0  0  0
   -1.3777    0.6583   -1.6334 H   0  0  0  0  0  0  0  0  0  0  0  0
   -2.7610    1.7930   -1.6957 H   0  0  0  0  0  0  0  0  0  0  0  0
   -3.6835    3.9174    2.2099 H   0  0  0  0  0  0  0  0  0  0  0  0
   -3.0492    2.2856    2.6387 H   0  0  0  0  0  0  0  0  0  0  0  0
  1  2  1  0
  2  3  1  0
  3  4  2  0
  4  5  1  0
  5  6  2  0
  6  7  1  0
  7  8  2  0
  8  9  1  0
  9 10  1  0
 10 11  1  0
 11 12  2  0
 12 13  1  0
 13 14  2  0
 14 15  1  0
 15 16  1  0
 15 17  2  0
 17 18  1  0
  9 19  2  0
 19 20  1  0
 20 21  2  0
 21 22  1  0
 22 23  1  0
 23 24  1  0
 23 25  1  0
 25 26  1  0
 25 27  1  0
 27 28  1  0
 27 29  2  0
 21  3  1  0
 19  5  1  0
 17 11  1  0
  1 30  1  0
  1 31  1  0
  1 32  1  0
  4 33  1  0
  7 34  1  0
 10 35  1  0
 12 36  1  0
 13 37  1  0
 14 38  1  0
 20 39  1  0
 22 40  1  0
 22 41  1  0
 24 42  1  0
 24 43  1  0
 24 44  1  0
 25 45  1  1
 26 46  1  0
 26 47  1  0
 26 48  1  0
 28 49  1  0
 28 50  1  0
M  END
