MODEL 1
REMARK VINA RESULT:    -9.911      0.000      0.000
REMARK INTER + INTRA:         -11.448
REMARK INTER:                 -11.070
REMARK INTRA:                  -0.379
REMARK UNBOUND:                -0.379
REMARK  Name = 
REMARK  5 active torsions:
REMARK  status: ('A' for Active; 'I' for Inactive)
REMARK    1  A    between atoms: C_1  and  C_2
REMARK    2  A    between atoms: C_2  and  C_3
REMARK    3  A    between atoms: C_2  and  C_4
REMARK    4  A    between atoms: C_2  and  N_5
REMARK    5  A    between atoms: C_19  and  C_20
REMARK                            x       y       z     vdW  Elec       q    Type
REMARK                         _______ _______ _______ _____ _____    ______ ____
ROOT
ATOM      1  N   UNL     1      22.784   5.874  51.485  0.00  0.00    +0.000 N 
ATOM      2  C   UNL     1      23.326   4.675  51.749  0.00  0.00    +0.000 C 
ATOM      3  O   UNL     1      22.853   4.060  52.701  0.00  0.00    +0.000 OA
ATOM      4  N   UNL     1      24.339   4.211  50.966  0.00  0.00    +0.000 N 
ATOM      5  C   UNL     1      24.973   2.992  51.332  0.00  0.00    +0.000 A 
ATOM      6  N   UNL     1      26.270   3.209  51.677  0.00  0.00    +0.000 NA
ATOM      7  C   UNL     1      26.913   2.290  52.395  0.00  0.00    +0.000 A 
ATOM      8  N   UNL     1      28.082   2.608  52.954  0.00  0.00    +0.000 NA
ATOM      9  C   UNL     1      28.631   1.738  53.805  0.00  0.00    +0.000 A 
ATOM     10  N   UNL     1      29.778   2.108  54.475  0.00  0.00    +0.000 N 
ATOM     11  N   UNL     1      28.146   0.529  54.079  0.00  0.00    +0.000 NA
ATOM     12  C   UNL     1      27.003   0.199  53.461  0.00  0.00    +0.000 A 
ATOM     13  C   UNL     1      26.330   1.052  52.600  0.00  0.00    +0.000 A 
ATOM     14  C   UNL     1      25.087   0.744  52.009  0.00  0.00    +0.000 A 
ATOM     15  C   UNL     1      24.300   1.748  51.426  0.00  0.00    +0.000 A 
ATOM     16  H   UNL     1      22.133   6.126  52.180  0.00  0.00    +0.000 HD
ATOM     17  H   UNL     1      24.624   4.707  50.166  0.00  0.00    +0.000 HD
ATOM     18  H   UNL     1      30.180   2.991  54.311  0.00  0.00    +0.000 HD
ATOM     19  H   UNL     1      30.195   1.488  55.116  0.00  0.00    +0.000 HD
ENDROOT
BRANCH  15  20
ATOM     20  C   UNL     1      22.854   1.487  51.044  0.00  0.00    +0.000 A 
ATOM     21  C   UNL     1      22.319   1.762  49.750  0.00  0.00    +0.000 A 
ATOM     22 CL   UNL     1      23.161   2.608  48.486  0.00  0.00    +0.000 Cl
ATOM     23  C   UNL     1      21.027   1.350  49.364  0.00  0.00    +0.000 A 
ATOM     24  C   UNL     1      20.246   0.582  50.208  0.00  0.00    +0.000 A 
ATOM     25  C   UNL     1      20.700   0.345  51.496  0.00  0.00    +0.000 A 
ATOM     26  C   UNL     1      21.936   0.863  51.928  0.00  0.00    +0.000 A 
ATOM     27 CL   UNL     1      22.176   0.828  53.649  0.00  0.00    +0.000 Cl
ENDBRANCH  15  20
BRANCH   1  29
ATOM     28  C   UNL     1      22.997   6.333  49.037  0.00  0.00    +0.000 C 
ATOM     29  C   UNL     1      22.884   6.928  50.445  0.00  0.00    +0.000 C 
ATOM     30  C   UNL     1      24.028   7.921  50.703  0.00  0.00    +0.000 C 
ATOM     31  C   UNL     1      21.559   7.721  50.519  0.00  0.00    +0.000 C 
ENDBRANCH   1  29
TORSDOF 2
ENDMDL
MODEL 2
REMARK VINA RESULT:    -9.474      0.320      1.795
REMARK INTER + INTRA:         -10.961
REMARK INTER:                 -10.625
REMARK INTRA:                  -0.336
REMARK UNBOUND:                -0.379
REMARK  Name = 
REMARK  5 active torsions:
REMARK  status: ('A' for Active; 'I' for Inactive)
REMARK    1  A    between atoms: C_1  and  C_2
REMARK    2  A    between atoms: C_2  and  C_3
REMARK    3  A    between atoms: C_2  and  C_4
REMARK    4  A    between atoms: C_2  and  N_5
REMARK    5  A    between atoms: C_19  and  C_20
REMARK                            x       y       z     vdW  Elec       q    Type
REMARK                         _______ _______ _______ _____ _____    ______ ____
ROOT
ATOM      1  N   UNL     1      22.657   5.796  51.544  0.00  0.00    +0.000 N 
ATOM      2  C   UNL     1      23.220   4.604  51.794  0.00  0.00    +0.000 C 
ATOM      3  O   UNL     1      22.788   3.989  52.764  0.00  0.00    +0.000 OA
ATOM      4  N   UNL     1      24.209   4.147  50.976  0.00  0.00    +0.000 N 
ATOM      5  C   UNL     1      24.868   2.936  51.324  0.00  0.00    +0.000 A 
ATOM      6  N   UNL     1      26.174   3.167  51.622  0.00  0.00    +0.000 NA
ATOM      7  C   UNL     1      26.852   2.257  52.321  0.00  0.00    +0.000 A 
ATOM      8  N   UNL     1      28.036   2.590  52.836  0.00  0.00    +0.000 NA
ATOM      9  C   UNL     1      28.624   1.729  53.671  0.00  0.00    +0.000 A 
ATOM     10  N   UNL     1      29.791   2.113  54.298  0.00  0.00    +0.000 N 
ATOM     11  N   UNL     1      28.162   0.516  53.966  0.00  0.00    +0.000 NA
ATOM     12  C   UNL     1      27.000   0.172  53.391  0.00  0.00    +0.000 A 
ATOM     13  C   UNL     1      26.289   1.015  52.551  0.00  0.00    +0.000 A 
ATOM     14  C   UNL     1      25.028   0.692  52.006  0.00  0.00    +0.000 A 
ATOM     15  C   UNL     1      24.212   1.685  51.447  0.00  0.00    +0.000 A 
ATOM     16  H   UNL     1      22.029   6.045  52.260  0.00  0.00    +0.000 HD
ATOM     17  H   UNL     1      24.461   4.643  50.165  0.00  0.00    +0.000 HD
ATOM     18  H   UNL     1      30.178   2.999  54.116  0.00  0.00    +0.000 HD
ATOM     19  H   UNL     1      30.236   1.500  54.927  0.00  0.00    +0.000 HD
ENDROOT
BRANCH  15  20
ATOM     20  C   UNL     1      22.755   1.408  51.117  0.00  0.00    +0.000 A 
ATOM     21  C   UNL     1      21.841   0.805  52.031  0.00  0.00    +0.000 A 
ATOM     22 CL   UNL     1      22.279   0.120  53.569  0.00  0.00    +0.000 Cl
ATOM     23  C   UNL     1      20.458   0.720  51.770  0.00  0.00    +0.000 A 
ATOM     24  C   UNL     1      19.914   1.296  50.637  0.00  0.00    +0.000 A 
ATOM     25  C   UNL     1      20.772   1.836  49.692  0.00  0.00    +0.000 A 
ATOM     26  C   UNL     1      22.166   1.810  49.891  0.00  0.00    +0.000 A 
ATOM     27 CL   UNL     1      23.108   2.149  48.470  0.00  0.00    +0.000 Cl
ENDBRANCH  15  20
BRANCH   1  29
ATOM     28  C   UNL     1      22.685   6.249  49.086  0.00  0.00    +0.000 C 
ATOM     29  C   UNL     1      22.709   6.847  50.497  0.00  0.00    +0.000 C 
ATOM     30  C   UNL     1      23.906   7.798  50.658  0.00  0.00    +0.000 C 
ATOM     31  C   UNL     1      21.424   7.687  50.677  0.00  0.00    +0.000 C 
ENDBRANCH   1  29
TORSDOF 2
ENDMDL
MODEL 3
REMARK VINA RESULT:    -8.494      3.021      4.045
REMARK INTER + INTRA:          -9.866
REMARK INTER:                  -9.531
REMARK INTRA:                  -0.335
REMARK UNBOUND:                -0.379
REMARK  Name = 
REMARK  5 active torsions:
REMARK  status: ('A' for Active; 'I' for Inactive)
REMARK    1  A    between atoms: C_1  and  C_2
REMARK    2  A    between atoms: C_2  and  C_3
REMARK    3  A    between atoms: C_2  and  C_4
REMARK    4  A    between atoms: C_2  and  N_5
REMARK    5  A    between atoms: C_19  and  C_20
REMARK                            x       y       z     vdW  Elec       q    Type
REMARK                         _______ _______ _______ _____ _____    ______ ____
ROOT
ATOM      1  N   UNL     1      23.558   5.107  50.809  0.00  0.00    +0.000 N 
ATOM      2  C   UNL     1      22.868   4.001  51.123  0.00  0.00    +0.000 C 
ATOM      3  O   UNL     1      21.796   4.169  51.697  0.00  0.00    +0.000 OA
ATOM      4  N   UNL     1      23.374   2.780  50.791  0.00  0.00    +0.000 N 
ATOM      5  C   UNL     1      22.683   1.618  51.233  0.00  0.00    +0.000 A 
ATOM      6  N   UNL     1      23.437   0.917  52.120  0.00  0.00    +0.000 NA
ATOM      7  C   UNL     1      22.844   0.032  52.920  0.00  0.00    +0.000 A 
ATOM      8  N   UNL     1      23.525  -0.458  53.956  0.00  0.00    +0.000 NA
ATOM      9  C   UNL     1      22.867  -1.211  54.842  0.00  0.00    +0.000 A 
ATOM     10  N   UNL     1      23.533  -1.626  55.977  0.00  0.00    +0.000 N 
ATOM     11  N   UNL     1      21.596  -1.589  54.728  0.00  0.00    +0.000 NA
ATOM     12  C   UNL     1      20.943  -1.139  53.646  0.00  0.00    +0.000 A 
ATOM     13  C   UNL     1      21.522  -0.311  52.698  0.00  0.00    +0.000 A 
ATOM     14  C   UNL     1      20.820   0.232  51.602  0.00  0.00    +0.000 A 
ATOM     15  C   UNL     1      21.346   1.308  50.873  0.00  0.00    +0.000 A 
ATOM     16  H   UNL     1      23.128   5.908  51.187  0.00  0.00    +0.000 HD
ATOM     17  H   UNL     1      24.197   2.704  50.258  0.00  0.00    +0.000 HD
ATOM     18  H   UNL     1      24.475  -1.376  56.112  0.00  0.00    +0.000 HD
ATOM     19  H   UNL     1      23.066  -2.172  56.649  0.00  0.00    +0.000 HD
ENDROOT
BRANCH  15  20
ATOM     20  C   UNL     1      20.490   2.078  49.883  0.00  0.00    +0.000 A 
ATOM     21  C   UNL     1      20.835   2.251  48.510  0.00  0.00    +0.000 A 
ATOM     22 CL   UNL     1      22.355   1.790  47.801  0.00  0.00    +0.000 Cl
ATOM     23  C   UNL     1      19.944   2.814  47.572  0.00  0.00    +0.000 A 
ATOM     24  C   UNL     1      18.654   3.152  47.936  0.00  0.00    +0.000 A 
ATOM     25  C   UNL     1      18.297   3.061  49.272  0.00  0.00    +0.000 A 
ATOM     26  C   UNL     1      19.225   2.618  50.234  0.00  0.00    +0.000 A 
ATOM     27 CL   UNL     1      18.771   2.936  51.881  0.00  0.00    +0.000 Cl
ENDBRANCH  15  20
BRANCH   1  29
ATOM     28  C   UNL     1      25.869   4.397  50.175  0.00  0.00    +0.000 C 
ATOM     29  C   UNL     1      24.783   5.471  50.053  0.00  0.00    +0.000 C 
ATOM     30  C   UNL     1      25.342   6.848  50.441  0.00  0.00    +0.000 C 
ATOM     31  C   UNL     1      24.356   5.546  48.569  0.00  0.00    +0.000 C 
ENDBRANCH   1  29
TORSDOF 2
ENDMDL
MODEL 4
REMARK VINA RESULT:    -8.221      3.119      6.420
REMARK INTER + INTRA:          -9.561
REMARK INTER:                  -9.129
REMARK INTRA:                  -0.432
REMARK UNBOUND:                -0.379
REMARK  Name = 
REMARK  5 active torsions:
REMARK  status: ('A' for Active; 'I' for Inactive)
REMARK    1  A    between atoms: C_1  and  C_2
REMARK    2  A    between atoms: C_2  and  C_3
REMARK    3  A    between atoms: C_2  and  C_4
REMARK    4  A    between atoms: C_2  and  N_5
REMARK    5  A    between atoms: C_19  and  C_20
REMARK                            x       y       z     vdW  Elec       q    Type
REMARK                         _______ _______ _______ _____ _____    ______ ____
ROOT
ATOM      1  N   UNL     1      27.349   2.035  54.202  0.00  0.00    +0.000 N 
ATOM      2  C   UNL     1      26.133   2.063  53.637  0.00  0.00    +0.000 C 
ATOM      3  O   UNL     1      25.417   3.017  53.926  0.00  0.00    +0.000 OA
ATOM      4  N   UNL     1      25.766   1.062  52.788  0.00  0.00    +0.000 N 
ATOM      5  C   UNL     1      24.435   1.051  52.289  0.00  0.00    +0.000 A 
ATOM      6  N   UNL     1      23.757  -0.034  52.750  0.00  0.00    +0.000 NA
ATOM      7  C   UNL     1      22.426  -0.031  52.714  0.00  0.00    +0.000 A 
ATOM      8  N   UNL     1      21.760  -0.965  53.396  0.00  0.00    +0.000 NA
ATOM      9  C   UNL     1      20.432  -0.850  53.488  0.00  0.00    +0.000 A 
ATOM     10  N   UNL     1      19.749  -1.743  54.287  0.00  0.00    +0.000 N 
ATOM     11  N   UNL     1      19.702   0.080  52.877  0.00  0.00    +0.000 NA
ATOM     12  C   UNL     1      20.382   0.974  52.144  0.00  0.00    +0.000 A 
ATOM     13  C   UNL     1      21.763   0.970  52.027  0.00  0.00    +0.000 A 
ATOM     14  C   UNL     1      22.490   1.954  51.325  0.00  0.00    +0.000 A 
ATOM     15  C   UNL     1      23.873   2.095  51.512  0.00  0.00    +0.000 A 
ATOM     16  H   UNL     1      27.447   2.761  54.861  0.00  0.00    +0.000 HD
ATOM     17  H   UNL     1      26.408   0.364  52.526  0.00  0.00    +0.000 HD
ATOM     18  H   UNL     1      20.239  -2.452  54.762  0.00  0.00    +0.000 HD
ATOM     19  H   UNL     1      18.772  -1.672  54.380  0.00  0.00    +0.000 HD
ENDROOT
BRANCH  15  20
ATOM     20  C   UNL     1      24.614   3.312  50.987  0.00  0.00    +0.000 A 
ATOM     21  C   UNL     1      25.762   3.233  50.144  0.00  0.00    +0.000 A 
ATOM     22 CL   UNL     1      26.605   1.765  49.748  0.00  0.00    +0.000 Cl
ATOM     23  C   UNL     1      26.326   4.369  49.528  0.00  0.00    +0.000 A 
ATOM     24  C   UNL     1      25.732   5.612  49.653  0.00  0.00    +0.000 A 
ATOM     25  C   UNL     1      24.653   5.746  50.513  0.00  0.00    +0.000 A 
ATOM     26  C   UNL     1      24.165   4.636  51.230  0.00  0.00    +0.000 A 
ATOM     27 CL   UNL     1      23.096   5.033  52.542  0.00  0.00    +0.000 Cl
ENDBRANCH  15  20
BRANCH   1  29
ATOM     28  C   UNL     1      28.916   0.827  52.675  0.00  0.00    +0.000 C 
ATOM     29  C   UNL     1      28.591   1.226  54.118  0.00  0.00    +0.000 C 
ATOM     30  C   UNL     1      28.562  -0.014  55.025  0.00  0.00    +0.000 C 
ATOM     31  C   UNL     1      29.727   2.143  54.623  0.00  0.00    +0.000 C 
ENDBRANCH   1  29
TORSDOF 2
ENDMDL
MODEL 5
REMARK VINA RESULT:    -7.902      2.317      4.469
REMARK INTER + INTRA:          -9.205
REMARK INTER:                  -8.699
REMARK INTRA:                  -0.506
REMARK UNBOUND:                -0.379
REMARK  Name = 
REMARK  5 active torsions:
REMARK  status: ('A' for Active; 'I' for Inactive)
REMARK    1  A    between atoms: C_1  and  C_2
REMARK    2  A    between atoms: C_2  and  C_3
REMARK    3  A    between atoms: C_2  and  C_4
REMARK    4  A    between atoms: C_2  and  N_5
REMARK    5  A    between atoms: C_19  and  C_20
REMARK                            x       y       z     vdW  Elec       q    Type
REMARK                         _______ _______ _______ _____ _____    ______ ____
ROOT
ATOM      1  N   UNL     1      20.967   1.747  50.020  0.00  0.00    +0.000 N 
ATOM      2  C   UNL     1      22.248   1.830  50.411  0.00  0.00    +0.000 C 
ATOM      3  O   UNL     1      23.079   1.999  49.524  0.00  0.00    +0.000 OA
ATOM      4  N   UNL     1      22.551   1.734  51.736  0.00  0.00    +0.000 N 
ATOM      5  C   UNL     1      23.921   1.712  52.117  0.00  0.00    +0.000 A 
ATOM      6  N   UNL     1      24.248   0.512  52.666  0.00  0.00    +0.000 NA
ATOM      7  C   UNL     1      25.530   0.158  52.736  0.00  0.00    +0.000 A 
ATOM      8  N   UNL     1      25.836  -1.107  53.026  0.00  0.00    +0.000 NA
ATOM      9  C   UNL     1      27.113  -1.485  52.927  0.00  0.00    +0.000 A 
ATOM     10  N   UNL     1      27.421  -2.817  53.112  0.00  0.00    +0.000 N 
ATOM     11  N   UNL     1      28.129  -0.674  52.645  0.00  0.00    +0.000 NA
ATOM     12  C   UNL     1      27.813   0.610  52.417  0.00  0.00    +0.000 A 
ATOM     13  C   UNL     1      26.512   1.089  52.446  0.00  0.00    +0.000 A 
ATOM     14  C   UNL     1      26.163   2.418  52.128  0.00  0.00    +0.000 A 
ATOM     15  C   UNL     1      24.833   2.764  51.850  0.00  0.00    +0.000 A 
ATOM     16  H   UNL     1      20.900   1.737  49.038  0.00  0.00    +0.000 HD
ATOM     17  H   UNL     1      21.839   1.682  52.412  0.00  0.00    +0.000 HD
ATOM     18  H   UNL     1      26.708  -3.461  53.323  0.00  0.00    +0.000 HD
ATOM     19  H   UNL     1      28.354  -3.122  53.033  0.00  0.00    +0.000 HD
ENDROOT
BRANCH  15  20
ATOM     20  C   UNL     1      24.485   4.110  51.239  0.00  0.00    +0.000 A 
ATOM     21  C   UNL     1      25.090   4.616  50.050  0.00  0.00    +0.000 A 
ATOM     22 CL   UNL     1      26.439   3.884  49.232  0.00  0.00    +0.000 Cl
ATOM     23  C   UNL     1      24.629   5.782  49.405  0.00  0.00    +0.000 A 
ATOM     24  C   UNL     1      23.504   6.446  49.861  0.00  0.00    +0.000 A 
ATOM     25  C   UNL     1      22.923   6.027  51.047  0.00  0.00    +0.000 A 
ATOM     26  C   UNL     1      23.459   4.938  51.763  0.00  0.00    +0.000 A 
ATOM     27 CL   UNL     1      22.884   4.790  53.396  0.00  0.00    +0.000 Cl
ENDBRANCH  15  20
BRANCH   1  29
ATOM     28  C   UNL     1      19.386   2.807  51.639  0.00  0.00    +0.000 C 
ATOM     29  C   UNL     1      19.622   1.667  50.644  0.00  0.00    +0.000 C 
ATOM     30  C   UNL     1      19.348   0.308  51.307  0.00  0.00    +0.000 C 
ATOM     31  C   UNL     1      18.610   1.830  49.487  0.00  0.00    +0.000 C 
ENDBRANCH   1  29
TORSDOF 2
ENDMDL
MODEL 6
REMARK VINA RESULT:    -7.795      3.264      5.023
REMARK INTER + INTRA:          -9.085
REMARK INTER:                  -8.462
REMARK INTRA:                  -0.623
REMARK UNBOUND:                -0.379
REMARK  Name = 
REMARK  5 active torsions:
REMARK  status: ('A' for Active; 'I' for Inactive)
REMARK    1  A    between atoms: C_1  and  C_2
REMARK    2  A    between atoms: C_2  and  C_3
REMARK    3  A    between atoms: C_2  and  C_4
REMARK    4  A    between atoms: C_2  and  N_5
REMARK    5  A    between atoms: C_19  and  C_20
REMARK                            x       y       z     vdW  Elec       q    Type
REMARK                         _______ _______ _______ _____ _____    ______ ____
ROOT
ATOM      1  N   UNL     1      21.428   4.155  48.050  0.00  0.00    +0.000 N 
ATOM      2  C   UNL     1      22.248   3.685  49.002  0.00  0.00    +0.000 C 
ATOM      3  O   UNL     1      23.210   3.026  48.618  0.00  0.00    +0.000 OA
ATOM      4  N   UNL     1      21.984   3.960  50.310  0.00  0.00    +0.000 N 
ATOM      5  C   UNL     1      22.800   3.358  51.307  0.00  0.00    +0.000 A 
ATOM      6  N   UNL     1      22.075   2.492  52.064  0.00  0.00    +0.000 NA
ATOM      7  C   UNL     1      22.711   1.568  52.781  0.00  0.00    +0.000 A 
ATOM      8  N   UNL     1      22.009   0.564  53.309  0.00  0.00    +0.000 NA
ATOM      9  C   UNL     1      22.679  -0.441  53.880  0.00  0.00    +0.000 A 
ATOM     10  N   UNL     1      21.968  -1.536  54.324  0.00  0.00    +0.000 N 
ATOM     11  N   UNL     1      23.999  -0.482  54.045  0.00  0.00    +0.000 NA
ATOM     12  C   UNL     1      24.685   0.566  53.565  0.00  0.00    +0.000 A 
ATOM     13  C   UNL     1      24.087   1.632  52.911  0.00  0.00    +0.000 A 
ATOM     14  C   UNL     1      24.809   2.697  52.332  0.00  0.00    +0.000 A 
ATOM     15  C   UNL     1      24.199   3.560  51.411  0.00  0.00    +0.000 A 
ATOM     16  H   UNL     1      21.680   3.806  47.165  0.00  0.00    +0.000 HD
ATOM     17  H   UNL     1      21.246   4.562  50.558  0.00  0.00    +0.000 HD
ATOM     18  H   UNL     1      20.989  -1.559  54.227  0.00  0.00    +0.000 HD
ATOM     19  H   UNL     1      22.440  -2.294  54.738  0.00  0.00    +0.000 HD
ENDROOT
BRANCH  15  20
ATOM     20  C   UNL     1      25.024   4.524  50.576  0.00  0.00    +0.000 A 
ATOM     21  C   UNL     1      26.071   4.110  49.700  0.00  0.00    +0.000 A 
ATOM     22 CL   UNL     1      26.697   2.491  49.594  0.00  0.00    +0.000 Cl
ATOM     23  C   UNL     1      26.703   4.999  48.805  0.00  0.00    +0.000 A 
ATOM     24  C   UNL     1      26.271   6.307  48.684  0.00  0.00    +0.000 A 
ATOM     25  C   UNL     1      25.301   6.768  49.559  0.00  0.00    +0.000 A 
ATOM     26  C   UNL     1      24.756   5.917  50.540  0.00  0.00    +0.000 A 
ATOM     27 CL   UNL     1      23.869   6.729  51.794  0.00  0.00    +0.000 Cl
ENDBRANCH  15  20
BRANCH   1  29
ATOM     28  C   UNL     1      20.564   6.466  48.454  0.00  0.00    +0.000 C 
ATOM     29  C   UNL     1      20.250   5.054  47.949  0.00  0.00    +0.000 C 
ATOM     30  C   UNL     1      19.006   4.494  48.655  0.00  0.00    +0.000 C 
ATOM     31  C   UNL     1      19.923   5.151  46.442  0.00  0.00    +0.000 C 
ENDBRANCH   1  29
TORSDOF 2
ENDMDL
MODEL 7
REMARK VINA RESULT:    -7.785      2.366      5.956
REMARK INTER + INTRA:          -9.075
REMARK INTER:                  -8.707
REMARK INTRA:                  -0.367
REMARK UNBOUND:                -0.379
REMARK  Name = 
REMARK  5 active torsions:
REMARK  status: ('A' for Active; 'I' for Inactive)
REMARK    1  A    between atoms: C_1  and  C_2
REMARK    2  A    between atoms: C_2  and  C_3
REMARK    3  A    between atoms: C_2  and  C_4
REMARK    4  A    between atoms: C_2  and  N_5
REMARK    5  A    between atoms: C_19  and  C_20
REMARK                            x       y       z     vdW  Elec       q    Type
REMARK                         _______ _______ _______ _____ _____    ______ ____
ROOT
ATOM      1  N   UNL     1      26.339   2.059  51.214  0.00  0.00    +0.000 N 
ATOM      2  C   UNL     1      25.585   3.008  50.640  0.00  0.00    +0.000 C 
ATOM      3  O   UNL     1      25.405   2.905  49.430  0.00  0.00    +0.000 OA
ATOM      4  N   UNL     1      25.064   4.005  51.409  0.00  0.00    +0.000 N 
ATOM      5  C   UNL     1      24.363   5.061  50.764  0.00  0.00    +0.000 A 
ATOM      6  N   UNL     1      25.025   6.239  50.910  0.00  0.00    +0.000 NA
ATOM      7  C   UNL     1      24.747   7.247  50.085  0.00  0.00    +0.000 A 
ATOM      8  N   UNL     1      25.566   8.299  50.053  0.00  0.00    +0.000 NA
ATOM      9  C   UNL     1      25.371   9.220  49.106  0.00  0.00    +0.000 A 
ATOM     10  N   UNL     1      26.281  10.251  48.993  0.00  0.00    +0.000 N 
ATOM     11  N   UNL     1      24.363   9.220  48.237  0.00  0.00    +0.000 NA
ATOM     12  C   UNL     1      23.512   8.186  48.323  0.00  0.00    +0.000 A 
ATOM     13  C   UNL     1      23.658   7.155  49.236  0.00  0.00    +0.000 A 
ATOM     14  C   UNL     1      22.815   6.025  49.280  0.00  0.00    +0.000 A 
ATOM     15  C   UNL     1      23.194   4.873  49.983  0.00  0.00    +0.000 A 
ATOM     16  H   UNL     1      26.726   1.459  50.536  0.00  0.00    +0.000 HD
ATOM     17  H   UNL     1      25.170   3.994  52.386  0.00  0.00    +0.000 HD
ATOM     18  H   UNL     1      27.046  10.301  49.610  0.00  0.00    +0.000 HD
ATOM     19  H   UNL     1      26.165  10.935  48.295  0.00  0.00    +0.000 HD
ENDROOT
BRANCH  15  20
ATOM     20  C   UNL     1      22.440   3.566  49.810  0.00  0.00    +0.000 A 
ATOM     21  C   UNL     1      22.186   2.965  48.541  0.00  0.00    +0.000 A 
ATOM     22 CL   UNL     1      22.513   3.711  47.005  0.00  0.00    +0.000 Cl
ATOM     23  C   UNL     1      21.643   1.670  48.414  0.00  0.00    +0.000 A 
ATOM     24  C   UNL     1      21.406   0.888  49.530  0.00  0.00    +0.000 A 
ATOM     25  C   UNL     1      21.579   1.454  50.783  0.00  0.00    +0.000 A 
ATOM     26  C   UNL     1      22.001   2.791  50.915  0.00  0.00    +0.000 A 
ATOM     27 CL   UNL     1      21.786   3.467  52.501  0.00  0.00    +0.000 Cl
ENDBRANCH  15  20
BRANCH   1  29
ATOM     28  C   UNL     1      25.638   1.860  53.605  0.00  0.00    +0.000 C 
ATOM     29  C   UNL     1      26.758   1.653  52.580  0.00  0.00    +0.000 C 
ATOM     30  C   UNL     1      28.047   2.347  53.044  0.00  0.00    +0.000 C 
ATOM     31  C   UNL     1      27.051   0.137  52.498  0.00  0.00    +0.000 C 
ENDBRANCH   1  29
TORSDOF 2
ENDMDL
MODEL 8
REMARK VINA RESULT:    -7.703      3.526      5.217
REMARK INTER + INTRA:          -8.982
REMARK INTER:                  -8.647
REMARK INTRA:                  -0.335
REMARK UNBOUND:                -0.379
REMARK  Name = 
REMARK  5 active torsions:
REMARK  status: ('A' for Active; 'I' for Inactive)
REMARK    1  A    between atoms: C_1  and  C_2
REMARK    2  A    between atoms: C_2  and  C_3
REMARK    3  A    between atoms: C_2  and  C_4
REMARK    4  A    between atoms: C_2  and  N_5
REMARK    5  A    between atoms: C_19  and  C_20
REMARK                            x       y       z     vdW  Elec       q    Type
REMARK                         _______ _______ _______ _____ _____    ______ ____
ROOT
ATOM      1  N   UNL     1      19.178   4.034  51.384  0.00  0.00    +0.000 N 
ATOM      2  C   UNL     1      20.494   3.971  51.130  0.00  0.00    +0.000 C 
ATOM      3  O   UNL     1      21.244   4.113  52.091  0.00  0.00    +0.000 OA
ATOM      4  N   UNL     1      20.919   3.751  49.854  0.00  0.00    +0.000 N 
ATOM      5  C   UNL     1      22.315   3.800  49.588  0.00  0.00    +0.000 A 
ATOM      6  N   UNL     1      22.612   4.843  48.768  0.00  0.00    +0.000 NA
ATOM      7  C   UNL     1      23.868   5.283  48.707  0.00  0.00    +0.000 A 
ATOM      8  N   UNL     1      24.114   6.454  48.117  0.00  0.00    +0.000 NA
ATOM      9  C   UNL     1      25.346   6.960  48.211  0.00  0.00    +0.000 A 
ATOM     10  N   UNL     1      25.579   8.222  47.705  0.00  0.00    +0.000 N 
ATOM     11  N   UNL     1      26.383   6.345  48.775  0.00  0.00    +0.000 NA
ATOM     12  C   UNL     1      26.134   5.140  49.309  0.00  0.00    +0.000 A 
ATOM     13  C   UNL     1      24.878   4.553  49.308  0.00  0.00    +0.000 A 
ATOM     14  C   UNL     1      24.590   3.324  49.937  0.00  0.00    +0.000 A 
ATOM     15  C   UNL     1      23.266   2.940  50.193  0.00  0.00    +0.000 A 
ATOM     16  H   UNL     1      19.014   4.290  52.321  0.00  0.00    +0.000 HD
ATOM     17  H   UNL     1      20.275   3.562  49.135  0.00  0.00    +0.000 HD
ATOM     18  H   UNL     1      24.848   8.722  47.276  0.00  0.00    +0.000 HD
ATOM     19  H   UNL     1      26.476   8.621  47.773  0.00  0.00    +0.000 HD
ENDROOT
BRANCH  15  20
ATOM     20  C   UNL     1      22.953   1.770  51.109  0.00  0.00    +0.000 A 
ATOM     21  C   UNL     1      23.549   1.592  52.393  0.00  0.00    +0.000 A 
ATOM     22 CL   UNL     1      24.853   2.554  53.025  0.00  0.00    +0.000 Cl
ATOM     23  C   UNL     1      23.115   0.601  53.297  0.00  0.00    +0.000 A 
ATOM     24  C   UNL     1      22.025  -0.197  53.002  0.00  0.00    +0.000 A 
ATOM     25  C   UNL     1      21.456  -0.102  51.743  0.00  0.00    +0.000 A 
ATOM     26  C   UNL     1      21.968   0.800  50.790  0.00  0.00    +0.000 A 
ATOM     27 CL   UNL     1      21.424   0.524  49.163  0.00  0.00    +0.000 Cl
ENDBRANCH  15  20
BRANCH   1  29
ATOM     28  C   UNL     1      17.725   2.372  50.213  0.00  0.00    +0.000 C 
ATOM     29  C   UNL     1      17.899   3.828  50.659  0.00  0.00    +0.000 C 
ATOM     30  C   UNL     1      17.724   4.781  49.467  0.00  0.00    +0.000 C 
ATOM     31  C   UNL     1      16.781   4.149  51.677  0.00  0.00    +0.000 C 
ENDBRANCH   1  29
TORSDOF 2
ENDMDL
MODEL 9
REMARK VINA RESULT:    -7.430      2.939      4.951
REMARK INTER + INTRA:          -8.678
REMARK INTER:                  -8.373
REMARK INTRA:                  -0.305
REMARK UNBOUND:                -0.379
REMARK  Name = 
REMARK  5 active torsions:
REMARK  status: ('A' for Active; 'I' for Inactive)
REMARK    1  A    between atoms: C_1  and  C_2
REMARK    2  A    between atoms: C_2  and  C_3
REMARK    3  A    between atoms: C_2  and  C_4
REMARK    4  A    between atoms: C_2  and  N_5
REMARK    5  A    between atoms: C_19  and  C_20
REMARK                            x       y       z     vdW  Elec       q    Type
REMARK                         _______ _______ _______ _____ _____    ______ ____
ROOT
ATOM      1  N   UNL     1      19.118   0.486  50.305  0.00  0.00    +0.000 N 
ATOM      2  C   UNL     1      20.387   0.915  50.367  0.00  0.00    +0.000 C 
ATOM      3  O   UNL     1      21.061   0.773  49.351  0.00  0.00    +0.000 OA
ATOM      4  N   UNL     1      20.849   1.478  51.518  0.00  0.00    +0.000 N 
ATOM      5  C   UNL     1      22.227   1.822  51.599  0.00  0.00    +0.000 A 
ATOM      6  N   UNL     1      22.858   1.064  52.534  0.00  0.00    +0.000 NA
ATOM      7  C   UNL     1      24.186   0.962  52.499  0.00  0.00    +0.000 A 
ATOM      8  N   UNL     1      24.781   0.025  53.238  0.00  0.00    +0.000 NA
ATOM      9  C   UNL     1      26.090  -0.175  53.066  0.00  0.00    +0.000 A 
ATOM     10  N   UNL     1      26.690  -1.219  53.740  0.00  0.00    +0.000 N 
ATOM     11  N   UNL     1      26.875   0.549  52.272  0.00  0.00    +0.000 NA
ATOM     12  C   UNL     1      26.272   1.529  51.582  0.00  0.00    +0.000 A 
ATOM     13  C   UNL     1      24.911   1.783  51.654  0.00  0.00    +0.000 A 
ATOM     14  C   UNL     1      24.257   2.757  50.872  0.00  0.00    +0.000 A 
ATOM     15  C   UNL     1      22.862   2.750  50.736  0.00  0.00    +0.000 A 
ATOM     16  H   UNL     1      18.945   0.019  49.456  0.00  0.00    +0.000 HD
ATOM     17  H   UNL     1      20.244   1.642  52.276  0.00  0.00    +0.000 HD
ATOM     18  H   UNL     1      26.157  -1.787  54.341  0.00  0.00    +0.000 HD
ATOM     19  H   UNL     1      27.652  -1.394  53.620  0.00  0.00    +0.000 HD
ENDROOT
BRANCH  15  20
ATOM     20  C   UNL     1      22.172   3.606  49.687  0.00  0.00    +0.000 A 
ATOM     21  C   UNL     1      22.175   3.299  48.293  0.00  0.00    +0.000 A 
ATOM     22 CL   UNL     1      23.114   2.034  47.556  0.00  0.00    +0.000 Cl
ATOM     23  C   UNL     1      21.385   4.005  47.363  0.00  0.00    +0.000 A 
ATOM     24  C   UNL     1      20.503   4.984  47.782  0.00  0.00    +0.000 A 
ATOM     25  C   UNL     1      20.513   5.358  49.116  0.00  0.00    +0.000 A 
ATOM     26  C   UNL     1      21.393   4.741  50.027  0.00  0.00    +0.000 A 
ATOM     27 CL   UNL     1      21.573   5.576  51.541  0.00  0.00    +0.000 Cl
ENDBRANCH  15  20
BRANCH   1  29
ATOM     28  C   UNL     1      17.519   1.942  51.558  0.00  0.00    +0.000 C 
ATOM     29  C   UNL     1      17.898   0.515  51.151  0.00  0.00    +0.000 C 
ATOM     30  C   UNL     1      18.004  -0.388  52.390  0.00  0.00    +0.000 C 
ATOM     31  C   UNL     1      16.759  -0.044  50.267  0.00  0.00    +0.000 C 
ENDBRANCH   1  29
TORSDOF 2
ENDMDL
