REMARK  Name = 
REMARK  8 active torsions:
REMARK  status: ('A' for Active; 'I' for Inactive)
REMARK    1  A    between atoms: C_1  and  O_2
REMARK    2  A    between atoms: O_2  and  C_3
REMARK    3  A    between atoms: C_5  and  N_6
REMARK    4  A    between atoms: C_13  and  C_14
REMARK    5  A    between atoms: C_22  and  O_23
REMARK    6  A    between atoms: O_23  and  C_24
REMARK    7  A    between atoms: C_25  and  O_26
REMARK    8  A    between atoms: O_26  and  C_27
REMARK                            x       y       z     vdW  Elec       q    Type
REMARK                         _______ _______ _______ _____ _____    ______ ____
ROOT
ATOM      1  N   UNL     1       4.060   4.356  -0.203  0.00  0.00    +0.000 N 
ATOM      2  C   UNL     1       5.176   3.561  -0.542  0.00  0.00    +0.000 A 
ATOM      3  N   UNL     1       5.123   2.776  -1.649  0.00  0.00    +0.000 NA
ATOM      4  C   UNL     1       6.158   1.985  -1.949  0.00  0.00    +0.000 A 
ATOM      5  N   UNL     1       7.300   1.866  -1.272  0.00  0.00    +0.000 NA
ATOM      6  C   UNL     1       7.374   2.658  -0.180  0.00  0.00    +0.000 A 
ATOM      7  C   UNL     1       8.493   2.711   0.701  0.00  0.00    +0.000 A 
ATOM      8  C   UNL     1       8.318   3.597   1.744  0.00  0.00    +0.000 A 
ATOM      9  S   UNL     1       6.776   4.348   1.657  0.00  0.00    +0.000 S 
ATOM     10  C   UNL     1       6.350   3.513   0.216  0.00  0.00    +0.000 A 
ATOM     11  H   UNL     1       4.226   5.214   0.251  0.00  0.00    +0.000 HD
ENDROOT
BRANCH   1  14
ATOM     12  C   UNL     1       1.006   2.271  -0.777  0.00  0.00    +0.000 A 
ATOM     13  C   UNL     1       2.323   2.658  -0.503  0.00  0.00    +0.000 A 
ATOM     14  C   UNL     1       2.718   4.000  -0.474  0.00  0.00    +0.000 A 
ATOM     15  C   UNL     1       1.757   4.985  -0.688  0.00  0.00    +0.000 A 
ATOM     16  C   UNL     1       0.438   4.628  -1.005  0.00  0.00    +0.000 A 
ATOM     17  C   UNL     1       0.046   3.269  -1.023  0.00  0.00    +0.000 A 
BRANCH  12  19
ATOM     18  C   UNL     1       1.491  -0.004  -0.266  0.00  0.00    +0.000 C 
ATOM     19  O   UNL     1       0.646   0.953  -0.896  0.00  0.00    +0.000 OA
ENDBRANCH  12  19
BRANCH  16  20
ATOM     20  O   UNL     1      -0.539   5.563  -1.267  0.00  0.00    +0.000 OA
ATOM     21  C   UNL     1      -0.094   6.738  -1.937  0.00  0.00    +0.000 C 
ENDBRANCH  16  20
BRANCH  17  22
ATOM     22  O   UNL     1      -1.274   3.044  -1.343  0.00  0.00    +0.000 OA
ATOM     23  C   UNL     1      -1.890   1.899  -0.767  0.00  0.00    +0.000 C 
ENDBRANCH  17  22
ENDBRANCH   1  14
BRANCH   8  24
ATOM     24  C   UNL     1       9.258   3.908   2.794  0.00  0.00    +0.000 A 
ATOM     25  C   UNL     1       8.985   4.258   4.104  0.00  0.00    +0.000 A 
ATOM     26  C   UNL     1      10.165   4.517   4.862  0.00  0.00    +0.000 A 
ATOM     27  C   UNL     1      11.306   4.357   4.111  0.00  0.00    +0.000 A 
ATOM     28  S   UNL     1      10.954   3.885   2.508  0.00  0.00    +0.000 S 
ENDBRANCH   8  24
TORSDOF 5
