REMARK  Name = 
REMARK  4 active torsions:
REMARK  status: ('A' for Active; 'I' for Inactive)
REMARK    1  A    between atoms: C_6  and  N_7
REMARK    2  A    between atoms: N_7  and  C_8
REMARK    3  A    between atoms: N_16  and  C_17
REMARK    4  A    between atoms: C_17  and  C_18
REMARK                            x       y       z     vdW  Elec       q    Type
REMARK                         _______ _______ _______ _____ _____    ______ ____
ROOT
ATOM      1  C   UNL     1       1.698  -3.756  -0.238  0.00  0.00    +0.000 A 
ATOM      2  N   UNL     1       0.781  -4.211  -1.173  0.00  0.00    +0.000 N 
ATOM      3  C   UNL     1       0.159  -5.421  -1.047  0.00  0.00    +0.000 A 
ATOM      4  N   UNL     1       0.296  -6.239  -0.062  0.00  0.00    +0.000 NA
ATOM      5  C   UNL     1       1.148  -5.813   0.922  0.00  0.00    +0.000 A 
ATOM      6  N   UNL     1       1.412  -6.463   2.014  0.00  0.00    +0.000 NA
ATOM      7  N   UNL     1       2.336  -5.659   2.779  0.00  0.00    +0.000 NA
ATOM      8  C   UNL     1       2.608  -4.543   2.120  0.00  0.00    +0.000 A 
ATOM      9  N   UNL     1       3.439  -3.568   2.607  0.00  0.00    +0.000 N 
ATOM     10  C   UNL     1       1.872  -4.544   0.845  0.00  0.00    +0.000 A 
ATOM     11  H   UNL     1       0.572  -3.645  -1.950  0.00  0.00    +0.000 HD
ATOM     12  H   UNL     1       3.807  -2.902   1.983  0.00  0.00    +0.000 HD
ENDROOT
BRANCH   1  13
ATOM     13  N   UNL     1       2.320  -2.536  -0.442  0.00  0.00    +0.000 N 
ATOM     14  H   UNL     1       1.764  -1.726  -0.376  0.00  0.00    +0.000 HD
BRANCH  13  20
ATOM     15 CL   UNL     1       7.166  -4.353  -0.513  0.00  0.00    +0.000 Cl
ATOM     16  C   UNL     1       6.010  -3.105  -0.767  0.00  0.00    +0.000 A 
ATOM     17  C   UNL     1       6.435  -1.837  -1.149  0.00  0.00    +0.000 A 
ATOM     18  C   UNL     1       5.498  -0.822  -1.327  0.00  0.00    +0.000 A 
ATOM     19  C   UNL     1       4.142  -1.083  -1.108  0.00  0.00    +0.000 A 
ATOM     20  C   UNL     1       3.698  -2.363  -0.738  0.00  0.00    +0.000 A 
ATOM     21  C   UNL     1       4.655  -3.372  -0.567  0.00  0.00    +0.000 A 
ENDBRANCH  13  20
ENDBRANCH   1  13
BRANCH   9  22
ATOM     22  C   UNL     1       3.797  -3.483   4.012  0.00  0.00    +0.000 C 
BRANCH  22  23
ATOM     23  C   UNL     1       3.388  -2.145   4.588  0.00  0.00    +0.000 A 
ATOM     24  C   UNL     1       2.061  -1.696   4.482  0.00  0.00    +0.000 A 
ATOM     25  C   UNL     1       1.672  -0.480   5.047  0.00  0.00    +0.000 A 
ATOM     26  C   UNL     1       2.600   0.296   5.738  0.00  0.00    +0.000 A 
ATOM     27  C   UNL     1       3.915  -0.145   5.868  0.00  0.00    +0.000 A 
ATOM     28  C   UNL     1       4.307  -1.360   5.300  0.00  0.00    +0.000 A 
ENDBRANCH  22  23
ENDBRANCH   9  22
TORSDOF 4
