REMARK  Name = 
REMARK  11 active torsions:
REMARK  status: ('A' for Active; 'I' for Inactive)
REMARK    1  A    between atoms: C_1  and  N_2
REMARK    2  A    between atoms: N_2  and  C_3
REMARK    3  A    between atoms: N_2  and  C_4
REMARK    4  A    between atoms: C_4  and  C_5
REMARK    5  A    between atoms: C_6  and  C_7
REMARK    6  A    between atoms: N_9  and  C_10
REMARK    7  A    between atoms: C_14  and  N_15
REMARK    8  A    between atoms: N_19  and  N_20
REMARK    9  A    between atoms: C_21  and  C_22
REMARK   10  A    between atoms: N_24  and  C_25
REMARK   11  A    between atoms: C_25  and  C_26
REMARK                            x       y       z     vdW  Elec       q    Type
REMARK                         _______ _______ _______ _____ _____    ______ ____
ROOT
ATOM      1  N   UNL     1      -4.891   2.314   4.128  0.00  0.00    +0.000 N 
ATOM      2  C   UNL     1      -5.007   2.211   5.543  0.00  0.00    +0.000 A 
ATOM      3  N   UNL     1      -5.756   1.213   6.057  0.00  0.00    +0.000 NA
ATOM      4  C   UNL     1      -5.907   1.133   7.385  0.00  0.00    +0.000 A 
ATOM      5  N   UNL     1      -6.762   0.120   7.820  0.00  0.00    +0.000 N 
ATOM      6  N   UNL     1      -5.331   1.974   8.251  0.00  0.00    +0.000 NA
ATOM      7  C   UNL     1      -4.498   2.892   7.733  0.00  0.00    +0.000 A 
ATOM      8  C   UNL     1      -4.290   3.048   6.381  0.00  0.00    +0.000 A 
ATOM      9 CL   UNL     1      -3.225   4.271   5.809  0.00  0.00    +0.000 Cl
ATOM     10  H   UNL     1      -4.102   2.768   3.754  0.00  0.00    +0.000 HD
ATOM     11  H   UNL     1      -7.071  -0.535   7.154  0.00  0.00    +0.000 HD
ENDROOT
BRANCH   1  16
ATOM     12  C   UNL     1      -8.176   1.369   2.562  0.00  0.00    +0.000 A 
ATOM     13  C   UNL     1      -7.711   0.828   1.363  0.00  0.00    +0.000 A 
ATOM     14  C   UNL     1      -6.342   0.774   1.091  0.00  0.00    +0.000 A 
ATOM     15  C   UNL     1      -5.422   1.254   2.022  0.00  0.00    +0.000 A 
ATOM     16  C   UNL     1      -5.861   1.793   3.233  0.00  0.00    +0.000 A 
ATOM     17  C   UNL     1      -7.245   1.900   3.466  0.00  0.00    +0.000 A 
BRANCH  12  20
ATOM     18  C   UNL     1     -10.558   0.679   2.325  0.00  0.00    +0.000 C 
ATOM     19  O   UNL     1     -10.449  -0.105   1.388  0.00  0.00    +0.000 OA
ATOM     20  N   UNL     1      -9.543   1.396   2.927  0.00  0.00    +0.000 N 
ATOM     21  H   UNL     1      -9.794   1.980   3.679  0.00  0.00    +0.000 HD
BRANCH  18  23
ATOM     22  C   UNL     1     -12.954   0.210   2.564  0.00  0.00    +0.000 C 
ATOM     23  C   UNL     1     -11.887   0.933   2.948  0.00  0.00    +0.000 C 
BRANCH  22  24
ATOM     24  C   UNL     1     -14.385   0.437   2.965  0.00  0.00    +0.000 C 
BRANCH  24  26
ATOM     25  C   UNL     1     -14.609   2.731   2.205  0.00  0.00    +0.000 C 
ATOM     26  N   UNL     1     -14.712   1.820   3.354  0.00  0.00    +0.000 N 
ATOM     27  C   UNL     1     -16.083   1.874   3.875  0.00  0.00    +0.000 C 
ATOM     28  H   UNL     1     -14.046   2.112   4.069  0.00  0.00    +0.000 HD
ENDBRANCH  24  26
ENDBRANCH  22  24
ENDBRANCH  18  23
ENDBRANCH  12  20
ENDBRANCH   1  16
BRANCH   5  29
ATOM     29  N   UNL     1      -7.196  -0.023   9.094  0.00  0.00    +0.000 NA
ATOM     30  C   UNL     1      -7.710   1.022   9.668  0.00  0.00    +0.000 C 
BRANCH  30  31
ATOM     31  C   UNL     1      -8.629   0.751  10.752  0.00  0.00    +0.000 A 
ATOM     32  C   UNL     1      -9.084  -0.530  10.995  0.00  0.00    +0.000 A 
ATOM     33  N   UNL     1     -10.439  -0.383  11.137  0.00  0.00    +0.000 N 
ATOM     34  C   UNL     1     -10.738   0.929  11.435  0.00  0.00    +0.000 A 
ATOM     35  C   UNL     1     -11.958   1.581  11.655  0.00  0.00    +0.000 A 
ATOM     36  C   UNL     1     -11.914   2.880  12.160  0.00  0.00    +0.000 A 
ATOM     37  C   UNL     1     -10.698   3.523  12.373  0.00  0.00    +0.000 A 
ATOM     38  C   UNL     1      -9.498   2.937  11.944  0.00  0.00    +0.000 A 
ATOM     39  C   UNL     1      -9.517   1.616  11.454  0.00  0.00    +0.000 A 
BRANCH  33  40
ATOM     40  C   UNL     1     -11.368  -1.459  10.851  0.00  0.00    +0.000 C 
BRANCH  40  41
ATOM     41  C   UNL     1     -11.754  -2.190  12.102  0.00  0.00    +0.000 A 
ATOM     42  C   UNL     1     -12.849  -1.757  12.858  0.00  0.00    +0.000 A 
ATOM     43  C   UNL     1     -13.235  -2.447  14.001  0.00  0.00    +0.000 A 
ATOM     44  C   UNL     1     -12.530  -3.578  14.402  0.00  0.00    +0.000 A 
ATOM     45  C   UNL     1     -11.414  -3.996  13.681  0.00  0.00    +0.000 A 
ATOM     46  C   UNL     1     -11.019  -3.301  12.539  0.00  0.00    +0.000 A 
ENDBRANCH  40  41
ENDBRANCH  33  40
ENDBRANCH  30  31
ENDBRANCH   5  29
TORSDOF 9
