REMARK  Name = 
REMARK  7 active torsions:
REMARK  status: ('A' for Active; 'I' for Inactive)
REMARK    1  A    between atoms: C_1  and  O_2
REMARK    2  A    between atoms: O_2  and  C_3
REMARK    3  A    between atoms: C_9  and  N_10
REMARK    4  A    between atoms: N_10  and  C_11
REMARK    5  A    between atoms: C_21  and  C_22
REMARK    6  A    between atoms: C_22  and  N_23
REMARK    7  A    between atoms: C_27  and  C_28
REMARK                            x       y       z     vdW  Elec       q    Type
REMARK                         _______ _______ _______ _____ _____    ______ ____
ROOT
ATOM      1  C   UNL     1       0.789  -1.980   1.148  0.00  0.00    +0.000 A 
ATOM      2  C   UNL     1      -0.160  -2.951   1.505  0.00  0.00    +0.000 A 
ATOM      3  C   UNL     1       0.187  -4.261   1.778  0.00  0.00    +0.000 A 
ATOM      4  N   UNL     1      -0.762  -5.089   2.228  0.00  0.00    +0.000 NA
ATOM      5  C   UNL     1      -0.376  -6.333   2.527  0.00  0.00    +0.000 A 
ATOM      6  N   UNL     1       0.854  -6.828   2.389  0.00  0.00    +0.000 NA
ATOM      7  C   UNL     1       1.797  -5.989   1.919  0.00  0.00    +0.000 A 
ATOM      8  C   UNL     1       1.516  -4.650   1.602  0.00  0.00    +0.000 A 
ATOM      9  C   UNL     1       2.463  -3.698   1.156  0.00  0.00    +0.000 A 
ATOM     10  C   UNL     1       2.133  -2.347   0.961  0.00  0.00    +0.000 A 
ENDROOT
BRANCH   1  12
ATOM     11  C   UNL     1      -0.628  -0.196   1.795  0.00  0.00    +0.000 C 
ATOM     12  O   UNL     1       0.459  -0.657   0.991  0.00  0.00    +0.000 OA
ENDBRANCH   1  12
BRANCH   7  13
ATOM     13  N   UNL     1       3.118  -6.480   1.772  0.00  0.00    +0.000 N 
ATOM     14  H   UNL     1       3.844  -5.816   1.773  0.00  0.00    +0.000 HD
BRANCH  13  15
ATOM     15  C   UNL     1       3.489  -7.834   1.626  0.00  0.00    +0.000 A 
ATOM     16  C   UNL     1       2.674  -8.752   0.946  0.00  0.00    +0.000 A 
ATOM     17  C   UNL     1       3.069 -10.077   0.769  0.00  0.00    +0.000 A 
ATOM     18  C   UNL     1       4.303 -10.507   1.250  0.00  0.00    +0.000 A 
ATOM     19  C   UNL     1       5.141  -9.602   1.898  0.00  0.00    +0.000 A 
ATOM     20 CL   UNL     1       6.674 -10.143   2.473  0.00  0.00    +0.000 Cl
ATOM     21  C   UNL     1       4.744  -8.276   2.072  0.00  0.00    +0.000 A 
ATOM     22  F   UNL     1       5.553  -7.401   2.696  0.00  0.00    +0.000 F 
ENDBRANCH  13  15
ENDBRANCH   7  13
BRANCH  10  23
ATOM     23  C   UNL     1       3.250  -1.329   0.807  0.00  0.00    +0.000 C 
BRANCH  23  24
ATOM     24  N   UNL     1       3.791  -0.955  -0.498  0.00  0.00    +0.000 N 
ATOM     25  C   UNL     1       2.834  -0.291  -1.383  0.00  0.00    +0.000 C 
ATOM     26  C   UNL     1       2.455  -1.350  -2.397  0.00  0.00    +0.000 C 
ATOM     27  C   UNL     1       3.741  -2.129  -2.604  0.00  0.00    +0.000 C 
ATOM     28  C   UNL     1       4.577  -1.878  -1.346  0.00  0.00    +0.000 C 
ATOM     29  H   UNL     1       4.498  -0.344  -0.089  0.00  0.00    +0.000 HD
BRANCH  28  30
ATOM     30  C   UNL     1       5.122  -3.152  -0.699  0.00  0.00    +0.000 C 
ATOM     31  N   UNL     1       5.951  -2.978   0.374  0.00  0.00    +0.000 N 
ATOM     32  O   UNL     1       4.908  -4.289  -1.110  0.00  0.00    +0.000 OA
ATOM     33  H   UNL     1       6.132  -2.072   0.714  0.00  0.00    +0.000 HD
ATOM     34  H   UNL     1       6.367  -3.759   0.806  0.00  0.00    +0.000 HD
ENDBRANCH  28  30
ENDBRANCH  23  24
ENDBRANCH  10  23
TORSDOF 6
