
     RDKit          3D

 65 68  0  0  0  0  0  0  0  0999 V2000
   -5.6555    1.8652   -1.8232 C   0  0  0  0  0  0  0  0  0  0  0  0
   -4.7636    1.5125   -0.7712 O   0  0  0  0  0  0  0  0  0  0  0  0
   -3.6034    0.7356   -0.9304 C   0  0  0  0  0  0  0  0  0  0  0  0
   -3.1906    0.2653   -2.1889 C   0  0  0  0  0  0  0  0  0  0  0  0
   -2.0512   -0.5352   -2.3074 C   0  0  0  0  0  0  0  0  0  0  0  0
   -1.6868   -1.0064   -3.5277 N   0  0  0  0  0  0  0  0  0  0  0  0
   -0.6111   -1.8170   -3.6707 C   0  0  0  0  0  0  0  0  0  0  0  0
    0.1183   -2.1783   -2.5874 N   0  0  0  0  0  0  0  0  0  0  0  0
   -0.1797   -1.7270   -1.3381 C   0  0  0  0  0  0  0  0  0  0  0  0
    0.5875   -2.1999   -0.2156 N   0  0  0  0  0  0  0  0  0  0  0  0
    1.9776   -2.5730   -0.2719 C   0  0  0  0  0  0  0  0  0  0  0  0
    2.8350   -2.1022   -1.2816 C   0  0  0  0  0  0  0  0  0  0  0  0
    4.1791   -2.4823   -1.3021 C   0  0  0  0  0  0  0  0  0  0  0  0
    4.7066   -3.2960   -0.2814 C   0  0  0  0  0  0  0  0  0  0  0  0
    6.0556   -3.6846   -0.2479 O   0  0  0  0  0  0  0  0  0  0  0  0
    7.0009   -3.5059   -1.3065 C   0  0  0  0  0  0  0  0  0  0  0  0
    7.4202   -2.0655   -1.4602 C   0  0  0  0  0  0  0  0  0  0  0  0
    7.5116   -1.2118   -0.3465 C   0  0  0  0  0  0  0  0  0  0  0  0
    7.9271    0.1136   -0.5091 C   0  0  0  0  0  0  0  0  0  0  0  0
    8.2775    0.5904   -1.7745 C   0  0  0  0  0  0  0  0  0  0  0  0
    8.2275   -0.2640   -2.8817 C   0  0  0  0  0  0  0  0  0  0  0  0
    8.5832    0.1966   -4.1058 F   0  0  0  0  0  0  0  0  0  0  0  0
    7.8060   -1.5883   -2.7260 C   0  0  0  0  0  0  0  0  0  0  0  0
    3.8609   -3.7301    0.7496 C   0  0  0  0  0  0  0  0  0  0  0  0
    4.4861   -4.7356    2.0481 Cl  0  0  0  0  0  0  0  0  0  0  0  0
    2.5077   -3.3787    0.7475 C   0  0  0  0  0  0  0  0  0  0  0  0
   -1.2976   -0.8761   -1.1644 C   0  0  0  0  0  0  0  0  0  0  0  0
   -1.6857   -0.3635    0.0870 C   0  0  0  0  0  0  0  0  0  0  0  0
   -2.8380    0.4317    0.2103 C   0  0  0  0  0  0  0  0  0  0  0  0
   -3.3048    0.8503    1.5038 N   0  0  0  0  0  0  0  0  0  0  0  0
   -2.4606    1.3873    2.5353 C   0  0  0  0  0  0  0  0  0  0  0  0
   -1.2219    1.5136    2.3469 O   0  0  0  0  0  0  0  0  0  0  0  0
   -3.0167    1.7431    3.8514 C   0  0  0  0  0  0  0  0  0  0  0  0
   -2.4203    1.2177    4.9506 F   0  0  0  0  0  0  0  0  0  0  0  0
   -4.0458    2.5875    4.0251 C   0  0  0  0  0  0  0  0  0  0  0  0
   -4.6457    3.4596    2.9480 C   0  0  0  0  0  0  0  0  0  0  0  0
   -6.1194    3.4823    3.0684 N   0  0  0  0  0  0  0  0  0  0  0  0
   -6.7075    2.2567    2.4984 C   0  0  0  0  0  0  0  0  0  0  0  0
   -6.6613    4.6617    2.3755 C   0  0  0  0  0  0  0  0  0  0  0  0
   -6.5007    2.4467   -1.3988 H   0  0  0  0  0  0  0  0  0  0  0  0
   -6.0613    0.9483   -2.3037 H   0  0  0  0  0  0  0  0  0  0  0  0
   -5.1299    2.4931   -2.5737 H   0  0  0  0  0  0  0  0  0  0  0  0
   -3.7601    0.4991   -3.0808 H   0  0  0  0  0  0  0  0  0  0  0  0
   -0.3437   -2.1886   -4.6487 H   0  0  0  0  0  0  0  0  0  0  0  0
    0.0823   -2.3862    0.6780 H   0  0  0  0  0  0  0  0  0  0  0  0
    2.4813   -1.4288   -2.0472 H   0  0  0  0  0  0  0  0  0  0  0  0
    4.8035   -2.1245   -2.1105 H   0  0  0  0  0  0  0  0  0  0  0  0
    7.9038   -4.1065   -1.0728 H   0  0  0  0  0  0  0  0  0  0  0  0
    6.5721   -3.9020   -2.2516 H   0  0  0  0  0  0  0  0  0  0  0  0
    7.2580   -1.5658    0.6447 H   0  0  0  0  0  0  0  0  0  0  0  0
    7.9815    0.7737    0.3476 H   0  0  0  0  0  0  0  0  0  0  0  0
    8.6037    1.6144   -1.8951 H   0  0  0  0  0  0  0  0  0  0  0  0
    7.7688   -2.2365   -3.5909 H   0  0  0  0  0  0  0  0  0  0  0  0
    1.8658   -3.7431    1.5390 H   0  0  0  0  0  0  0  0  0  0  0  0
   -1.1220   -0.5988    0.9790 H   0  0  0  0  0  0  0  0  0  0  0  0
   -4.3333    0.7973    1.6880 H   0  0  0  0  0  0  0  0  0  0  0  0
   -4.3676    2.7810    5.0402 H   0  0  0  0  0  0  0  0  0  0  0  0
   -4.3326    3.1677    1.9206 H   0  0  0  0  0  0  0  0  0  0  0  0
   -4.2313    4.4801    3.1176 H   0  0  0  0  0  0  0  0  0  0  0  0
   -7.8121    2.2809    2.5955 H   0  0  0  0  0  0  0  0  0  0  0  0
   -6.3529    1.3619    3.0520 H   0  0  0  0  0  0  0  0  0  0  0  0
   -6.4500    2.1449    1.4214 H   0  0  0  0  0  0  0  0  0  0  0  0
   -6.3239    4.7006    1.3175 H   0  0  0  0  0  0  0  0  0  0  0  0
   -7.7711    4.6559    2.4009 H   0  0  0  0  0  0  0  0  0  0  0  0
   -6.3295    5.5858    2.8955 H   0  0  0  0  0  0  0  0  0  0  0  0
  1  2  1  0
  2  3  1  0
  3  4  2  0
  4  5  1  0
  5  6  2  0
  6  7  1  0
  7  8  2  0
  8  9  1  0
  9 10  1  0
 10 11  1  0
 11 12  2  0
 12 13  1  0
 13 14  2  0
 14 15  1  0
 15 16  1  0
 16 17  1  0
 17 18  2  0
 18 19  1  0
 19 20  2  0
 20 21  1  0
 21 22  1  0
 21 23  2  0
 14 24  1  0
 24 25  1  0
 24 26  2  0
  9 27  2  0
 27 28  1  0
 28 29  2  0
 29 30  1  0
 30 31  1  0
 31 32  2  0
 31 33  1  0
 33 34  1  0
 33 35  2  0
 35 36  1  0
 36 37  1  0
 37 38  1  0
 37 39  1  0
 29  3  1  0
 27  5  1  0
 26 11  1  0
 23 17  1  0
  1 40  1  0
  1 41  1  0
  1 42  1  0
  4 43  1  0
  7 44  1  0
 10 45  1  0
 12 46  1  0
 13 47  1  0
 16 48  1  0
 16 49  1  0
 18 50  1  0
 19 51  1  0
 20 52  1  0
 23 53  1  0
 26 54  1  0
 28 55  1  0
 30 56  1  0
 35 57  1  0
 36 58  1  0
 36 59  1  0
 38 60  1  0
 38 61  1  0
 38 62  1  0
 39 63  1  0
 39 64  1  0
 39 65  1  0
M  END
