
     RDKit          3D

 70 75  0  0  0  0  0  0  0  0999 V2000
    5.6152    1.7581    1.9473 C   0  0  0  0  0  0  0  0  0  0  0  0
    4.6956    0.7729    1.2380 C   0  0  0  0  0  0  0  0  0  0  0  0
    5.3995    0.2411   -0.3184 S   0  0  0  0  0  0  0  0  0  0  0  0
    5.9325    1.4184   -1.0867 O   0  0  0  0  0  0  0  0  0  0  0  0
    6.5273   -0.7167   -0.0562 O   0  0  0  0  0  0  0  0  0  0  0  0
    4.1768   -0.5505   -1.2597 N   0  0  0  0  0  0  0  0  0  0  0  0
    3.9705   -1.8862   -1.2968 C   0  0  0  0  0  0  0  0  0  0  0  0
    2.7506   -2.1719   -1.9051 C   0  0  0  0  0  0  0  0  0  0  0  0
    2.2249   -0.9426   -2.2653 C   0  0  0  0  0  0  0  0  0  0  0  0
    0.9524   -0.6230   -2.7450 C   0  0  0  0  0  0  0  0  0  0  0  0
    0.5288    0.7096   -2.6531 C   0  0  0  0  0  0  0  0  0  0  0  0
    1.3500    1.6640   -2.0196 C   0  0  0  0  0  0  0  0  0  0  0  0
    2.6860    1.3526   -1.6986 C   0  0  0  0  0  0  0  0  0  0  0  0
    3.0945    0.0223   -1.8208 C   0  0  0  0  0  0  0  0  0  0  0  0
    0.7565    2.8156   -1.5031 O   0  0  0  0  0  0  0  0  0  0  0  0
    0.6243    2.9900   -0.0868 C   0  0  0  0  0  0  0  0  0  0  0  0
    0.0679    1.7077    0.5636 C   0  0  0  0  0  0  0  0  0  0  0  0
   -0.2119    1.8649    2.0574 C   0  0  0  0  0  0  0  0  0  0  0  0
   -0.6633    0.5387    2.6829 C   0  0  0  0  0  0  0  0  0  0  0  0
   -1.9737    0.1944    2.2312 O   0  0  0  0  0  0  0  0  0  0  0  0
   -2.2736   -0.6399    1.1441 C   0  0  0  0  0  0  0  0  0  0  0  0
   -1.5977   -1.8601    0.9327 C   0  0  0  0  0  0  0  0  0  0  0  0
   -1.9806   -2.7096   -0.1184 C   0  0  0  0  0  0  0  0  0  0  0  0
   -2.9993   -2.3145   -0.9886 C   0  0  0  0  0  0  0  0  0  0  0  0
   -3.6464   -1.0908   -0.8085 C   0  0  0  0  0  0  0  0  0  0  0  0
   -3.3104   -0.2610    0.2687 C   0  0  0  0  0  0  0  0  0  0  0  0
   -4.0166    0.9814    0.4471 N   0  0  0  0  0  0  0  0  0  0  0  0
   -4.6795    1.2796    1.7207 C   0  0  0  0  0  0  0  0  0  0  0  0
   -5.8384    2.2558    1.4833 C   0  0  0  0  0  0  0  0  0  0  0  0
   -5.3960    3.3891    0.7600 O   0  0  0  0  0  0  0  0  0  0  0  0
   -5.0009    2.9950   -0.5426 C   0  0  0  0  0  0  0  0  0  0  0  0
   -3.7689    2.0855   -0.4808 C   0  0  0  0  0  0  0  0  0  0  0  0
   -1.4114   -4.0196   -0.2491 N   0  0  0  0  0  0  0  0  0  0  0  0
   -0.0891   -4.2411   -0.7554 C   0  0  0  0  0  0  0  0  0  0  0  0
    0.3765   -5.5081   -0.9080 N   0  0  0  0  0  0  0  0  0  0  0  0
    1.6180   -5.7423   -1.4088 C   0  0  0  0  0  0  0  0  0  0  0  0
    2.4406   -4.6748   -1.7771 C   0  0  0  0  0  0  0  0  0  0  0  0
    4.0340   -5.0035   -2.4466 Cl  0  0  0  0  0  0  0  0  0  0  0  0
    1.9430   -3.3723   -1.6234 C   0  0  0  0  0  0  0  0  0  0  0  0
    0.6942   -3.1948   -1.1139 N   0  0  0  0  0  0  0  0  0  0  0  0
    6.5979    1.2874    2.1539 H   0  0  0  0  0  0  0  0  0  0  0  0
    5.1535    2.0691    2.9065 H   0  0  0  0  0  0  0  0  0  0  0  0
    5.7658    2.6641    1.3220 H   0  0  0  0  0  0  0  0  0  0  0  0
    4.5308   -0.1149    1.8840 H   0  0  0  0  0  0  0  0  0  0  0  0
    3.7121    1.2536    1.0552 H   0  0  0  0  0  0  0  0  0  0  0  0
    4.5748   -2.5997   -0.7521 H   0  0  0  0  0  0  0  0  0  0  0  0
    0.2747   -1.3911   -3.0943 H   0  0  0  0  0  0  0  0  0  0  0  0
   -0.4913    0.9621   -2.9138 H   0  0  0  0  0  0  0  0  0  0  0  0
    3.3115    2.0864   -1.2097 H   0  0  0  0  0  0  0  0  0  0  0  0
    1.6142    3.2367    0.3518 H   0  0  0  0  0  0  0  0  0  0  0  0
   -0.0646    3.8388    0.1046 H   0  0  0  0  0  0  0  0  0  0  0  0
    0.8017    0.8829    0.4348 H   0  0  0  0  0  0  0  0  0  0  0  0
   -0.8646    1.4223    0.0379 H   0  0  0  0  0  0  0  0  0  0  0  0
    0.7172    2.2019    2.5669 H   0  0  0  0  0  0  0  0  0  0  0  0
   -0.9993    2.6343    2.2123 H   0  0  0  0  0  0  0  0  0  0  0  0
   -0.7076    0.6784    3.7827 H   0  0  0  0  0  0  0  0  0  0  0  0
    0.0737   -0.2664    2.4801 H   0  0  0  0  0  0  0  0  0  0  0  0
   -0.8263   -2.1847    1.6182 H   0  0  0  0  0  0  0  0  0  0  0  0
   -3.2990   -2.9624   -1.8007 H   0  0  0  0  0  0  0  0  0  0  0  0
   -4.4364   -0.8001   -1.4906 H   0  0  0  0  0  0  0  0  0  0  0  0
   -5.0768    0.3447    2.1786 H   0  0  0  0  0  0  0  0  0  0  0  0
   -3.9525    1.7470    2.4237 H   0  0  0  0  0  0  0  0  0  0  0  0
   -6.2248    2.5969    2.4671 H   0  0  0  0  0  0  0  0  0  0  0  0
   -6.6845    1.7464    0.9618 H   0  0  0  0  0  0  0  0  0  0  0  0
   -5.8288    2.4802   -1.0802 H   0  0  0  0  0  0  0  0  0  0  0  0
   -4.7456    3.9035   -1.1262 H   0  0  0  0  0  0  0  0  0  0  0  0
   -3.5532    1.6983   -1.5006 H   0  0  0  0  0  0  0  0  0  0  0  0
   -2.8972    2.6752   -0.1250 H   0  0  0  0  0  0  0  0  0  0  0  0
   -2.0444   -4.8434   -0.1455 H   0  0  0  0  0  0  0  0  0  0  0  0
    1.9672   -6.7613   -1.5168 H   0  0  0  0  0  0  0  0  0  0  0  0
  1  2  1  0
  2  3  1  0
  3  4  2  0
  3  5  2  0
  3  6  1  0
  6  7  1  0
  7  8  2  0
  8  9  1  0
  9 10  2  0
 10 11  1  0
 11 12  2  0
 12 13  1  0
 13 14  2  0
 12 15  1  0
 15 16  1  0
 16 17  1  0
 17 18  1  0
 18 19  1  0
 19 20  1  0
 20 21  1  0
 21 22  2  0
 22 23  1  0
 23 24  2  0
 24 25  1  0
 25 26  2  0
 26 27  1  0
 27 28  1  0
 28 29  1  0
 29 30  1  0
 30 31  1  0
 31 32  1  0
 23 33  1  0
 33 34  1  0
 34 35  1  0
 35 36  2  0
 36 37  1  0
 37 38  1  0
 37 39  2  0
 39 40  1  0
 14  6  1  0
 26 21  1  0
 32 27  1  0
 40 34  2  0
 39  8  1  0
 14  9  1  0
  1 41  1  0
  1 42  1  0
  1 43  1  0
  2 44  1  0
  2 45  1  0
  7 46  1  0
 10 47  1  0
 11 48  1  0
 13 49  1  0
 16 50  1  0
 16 51  1  0
 17 52  1  0
 17 53  1  0
 18 54  1  0
 18 55  1  0
 19 56  1  0
 19 57  1  0
 22 58  1  0
 24 59  1  0
 25 60  1  0
 28 61  1  0
 28 62  1  0
 29 63  1  0
 29 64  1  0
 31 65  1  0
 31 66  1  0
 32 67  1  0
 32 68  1  0
 33 69  1  0
 36 70  1  0
M  END
