REMARK  Name = 
REMARK  11 active torsions:
REMARK  status: ('A' for Active; 'I' for Inactive)
REMARK    1  A    between atoms: C_1  and  C_2
REMARK    2  A    between atoms: C_8  and  C_9
REMARK    3  A    between atoms: C_12  and  O_13
REMARK    4  A    between atoms: O_13  and  C_14
REMARK    5  A    between atoms: N_23  and  C_24
REMARK    6  A    between atoms: C_24  and  C_25
REMARK    7  A    between atoms: C_30  and  N_32
REMARK    8  A    between atoms: C_33  and  C_34
REMARK    9  A    between atoms: C_34  and  N_35
REMARK   10  A    between atoms: N_35  and  C_36
REMARK   11  A    between atoms: N_35  and  C_37
REMARK                            x       y       z     vdW  Elec       q    Type
REMARK                         _______ _______ _______ _____ _____    ______ ____
ROOT
ATOM      1  C   UNL     1      -6.314   6.100   7.576  0.00  0.00    +0.000 C 
ATOM      2  C   UNL     1      -5.170   5.150   7.754  0.00  0.00    +0.000 A 
ATOM      3  N   UNL     1      -5.495   3.955   8.330  0.00  0.00    +0.000 NA
ATOM      4  C   UNL     1      -4.535   3.033   8.518  0.00  0.00    +0.000 A 
ATOM      5  N   UNL     1      -3.244   3.131   8.190  0.00  0.00    +0.000 NA
ATOM      6  C   UNL     1      -2.951   4.319   7.637  0.00  0.00    +0.000 A 
ATOM      7  C   UNL     1      -3.831   5.358   7.372  0.00  0.00    +0.000 A 
ATOM      8  C   UNL     1      -3.012   6.358   6.749  0.00  0.00    +0.000 A 
ATOM      9  N   UNL     1      -1.717   5.985   6.721  0.00  0.00    +0.000 NA
ATOM     10  N   UNL     1      -1.714   4.744   7.238  0.00  0.00    +0.000 N 
ENDROOT
BRANCH   8  11
ATOM     11  C   UNL     1      -3.398   7.640   6.158  0.00  0.00    +0.000 A 
ATOM     12  C   UNL     1      -2.567   8.762   6.296  0.00  0.00    +0.000 A 
ATOM     13  C   UNL     1      -2.902   9.972   5.683  0.00  0.00    +0.000 A 
ATOM     14  C   UNL     1      -4.049  10.055   4.889  0.00  0.00    +0.000 A 
ATOM     15  C   UNL     1      -4.907   8.964   4.790  0.00  0.00    +0.000 A 
ATOM     16  C   UNL     1      -4.565   7.755   5.395  0.00  0.00    +0.000 A 
BRANCH  14  17
ATOM     17  O   UNL     1      -4.421  11.179   4.193  0.00  0.00    +0.000 OA
BRANCH  17  18
ATOM     18  C   UNL     1      -3.470  11.881   3.486  0.00  0.00    +0.000 A 
ATOM     19  C   UNL     1      -2.266  11.353   3.009  0.00  0.00    +0.000 A 
ATOM     20  C   UNL     1      -1.343  12.182   2.371  0.00  0.00    +0.000 A 
ATOM     21  C   UNL     1      -1.646  13.525   2.154  0.00  0.00    +0.000 A 
ATOM     22  C   UNL     1      -2.880  14.035   2.556  0.00  0.00    +0.000 A 
ATOM     23  C   UNL     1      -3.791  13.213   3.220  0.00  0.00    +0.000 A 
ENDBRANCH  17  18
ENDBRANCH  14  17
ENDBRANCH   8  11
BRANCH  10  24
ATOM     24  C   UNL     1      -0.489   3.963   7.251  0.00  0.00    +0.000 C 
BRANCH  24  25
ATOM     25  C   UNL     1       0.335   4.082   8.548  0.00  0.00    +0.000 C 
ATOM     26  C   UNL     1      -0.409   3.647   9.819  0.00  0.00    +0.000 C 
ATOM     27  C   UNL     1      -0.298   2.126   9.784  0.00  0.00    +0.000 C 
ATOM     28  C   UNL     1       1.106   1.895   9.241  0.00  0.00    +0.000 C 
ATOM     29  N   UNL     1       1.450   3.121   8.542  0.00  0.00    +0.000 N 
ATOM     30  C   UNL     1       2.737   3.341   8.104  0.00  0.00    +0.000 C 
ATOM     31  O   UNL     1       3.608   2.487   8.246  0.00  0.00    +0.000 OA
BRANCH  30  32
ATOM     32  N   UNL     1       2.938   4.566   7.526  0.00  0.00    +0.000 NA
ATOM     33  C   UNL     1       4.171   4.864   7.263  0.00  0.00    +0.000 C 
BRANCH  33  34
ATOM     34  C   UNL     1       4.525   6.168   6.581  0.00  0.00    +0.000 C 
BRANCH  34  35
ATOM     35  N   UNL     1       5.142   5.896   5.269  0.00  0.00    +0.000 N 
ATOM     36  C   UNL     1       4.203   5.221   4.365  0.00  0.00    +0.000 C 
ATOM     37  C   UNL     1       5.586   7.154   4.663  0.00  0.00    +0.000 C 
ATOM     38  H   UNL     1       5.941   5.279   5.416  0.00  0.00    +0.000 HD
ENDBRANCH  34  35
ENDBRANCH  33  34
ENDBRANCH  30  32
ENDBRANCH  24  25
ENDBRANCH  10  24
TORSDOF 8
