REMARK  Name = 
REMARK  5 active torsions:
REMARK  status: ('A' for Active; 'I' for Inactive)
REMARK    1  A    between atoms: N_1  and  C_2
REMARK    2  A    between atoms: C_5  and  N_6
REMARK    3  A    between atoms: N_6  and  C_7
REMARK    4  A    between atoms: N_14  and  C_15
REMARK    5  A    between atoms: C_15  and  C_16
REMARK                            x       y       z     vdW  Elec       q    Type
REMARK                         _______ _______ _______ _____ _____    ______ ____
ROOT
ATOM      1  C   UNL     1      -1.998  -0.201   3.122  0.00  0.00    +0.000 A 
ATOM      2  C   UNL     1      -0.679  -0.619   3.301  0.00  0.00    +0.000 A 
ATOM      3  C   UNL     1      -0.131  -1.673   2.559  0.00  0.00    +0.000 A 
ATOM      4  C   UNL     1      -0.949  -2.297   1.610  0.00  0.00    +0.000 A 
ATOM      5  C   UNL     1      -2.300  -1.966   1.467  0.00  0.00    +0.000 A 
ATOM      6  C   UNL     1      -2.774  -2.834   0.470  0.00  0.00    +0.000 A 
ATOM      7  N   UNL     1      -1.810  -3.601  -0.049  0.00  0.00    +0.000 NA
ATOM      8  N   UNL     1      -0.710  -3.255   0.658  0.00  0.00    +0.000 N 
ATOM      9  C   UNL     1      -2.840  -0.922   2.245  0.00  0.00    +0.000 A 
ENDROOT
BRANCH   1  10
ATOM     10  N   UNL     1      -2.508   0.955   3.779  0.00  0.00    +0.000 N 
ATOM     11  H   UNL     1      -3.355   0.864   4.273  0.00  0.00    +0.000 HD
BRANCH  10  15
ATOM     12  C   UNL     1      -4.789   4.389   3.506  0.00  0.00    +0.000 A 
ATOM     13  C   UNL     1      -4.072   3.337   4.024  0.00  0.00    +0.000 A 
ATOM     14  C   UNL     1      -2.680   3.390   3.873  0.00  0.00    +0.000 A 
ATOM     15  C   UNL     1      -1.875   2.245   3.771  0.00  0.00    +0.000 A 
ATOM     16  N   UNL     1      -0.552   2.350   3.555  0.00  0.00    +0.000 NA
ATOM     17  C   UNL     1      -0.048   3.582   3.409  0.00  0.00    +0.000 A 
ATOM     18  N   UNL     1      -0.731   4.730   3.448  0.00  0.00    +0.000 NA
ATOM     19  C   UNL     1      -2.053   4.612   3.619  0.00  0.00    +0.000 A 
ATOM     20  C   UNL     1      -2.899   5.688   3.432  0.00  0.00    +0.000 A 
ATOM     21  N   UNL     1      -4.246   5.592   3.290  0.00  0.00    +0.000 NA
BRANCH  12  22
ATOM     22  N   UNL     1      -5.986   4.100   2.874  0.00  0.00    +0.000 N 
ATOM     23  H   UNL     1      -6.415   3.225   3.009  0.00  0.00    +0.000 HD
ATOM     24  H   UNL     1      -6.408   4.771   2.290  0.00  0.00    +0.000 HD
ENDBRANCH  12  22
ENDBRANCH  10  15
ENDBRANCH   1  10
BRANCH   8  25
ATOM     25  C   UNL     1       0.588  -3.782   0.248  0.00  0.00    +0.000 C 
BRANCH  25  26
ATOM     26  C   UNL     1       0.989  -5.067   0.942  0.00  0.00    +0.000 A 
ATOM     27  C   UNL     1       0.050  -5.983   1.442  0.00  0.00    +0.000 A 
ATOM     28  C   UNL     1       0.461  -7.150   2.088  0.00  0.00    +0.000 A 
ATOM     29  C   UNL     1       1.816  -7.439   2.214  0.00  0.00    +0.000 A 
ATOM     30  C   UNL     1       2.762  -6.574   1.670  0.00  0.00    +0.000 A 
ATOM     31  C   UNL     1       2.353  -5.398   1.035  0.00  0.00    +0.000 A 
ENDBRANCH  25  26
ENDBRANCH   8  25
TORSDOF 5
