
     RDKit          3D

 68 71  0  0  0  0  0  0  0  0999 V2000
   -0.8954    4.6720   -0.8875 C   0  0  0  0  0  0  0  0  0  0  0  0
    0.2479    3.9882   -0.7910 C   0  0  0  0  0  0  0  0  0  0  0  0
    0.3281    2.5427   -0.4958 C   0  0  0  0  0  0  0  0  0  0  0  0
    1.4115    1.9533   -0.7490 O   0  0  0  0  0  0  0  0  0  0  0  0
   -0.7790    1.8113    0.0680 N   0  0  0  0  0  0  0  0  0  0  0  0
   -0.7719    0.3894    0.2939 C   0  0  0  0  0  0  0  0  0  0  0  0
    0.3502   -0.2508    0.8444 C   0  0  0  0  0  0  0  0  0  0  0  0
    0.3336   -1.6266    1.1009 C   0  0  0  0  0  0  0  0  0  0  0  0
    1.8096   -2.4073    1.7700 S   0  0  0  0  0  0  0  0  0  0  0  0
    2.4023   -3.0465    0.1633 C   0  0  0  0  0  0  0  0  0  0  0  0
    2.7184   -1.9324   -0.7832 C   0  0  0  0  0  0  0  0  0  0  0  0
    1.9156   -1.7140   -1.8763 N   0  0  0  0  0  0  0  0  0  0  0  0
    2.1577   -0.6910   -2.7464 C   0  0  0  0  0  0  0  0  0  0  0  0
    3.2486    0.1229   -2.4904 C   0  0  0  0  0  0  0  0  0  0  0  0
    3.6532    1.2264   -3.1428 N   0  0  0  0  0  0  0  0  0  0  0  0
    4.7164    1.6394   -2.3984 C   0  0  0  0  0  0  0  0  0  0  0  0
    4.9754    0.8400   -1.3284 N   0  0  0  0  0  0  0  0  0  0  0  0
    6.0033    1.0089   -0.3327 C   0  0  0  0  0  0  0  0  0  0  0  0
    6.4418    2.2968    0.0236 C   0  0  0  0  0  0  0  0  0  0  0  0
    7.4458    2.4627    0.9826 C   0  0  0  0  0  0  0  0  0  0  0  0
    8.0219    1.3483    1.5977 C   0  0  0  0  0  0  0  0  0  0  0  0
    8.9939    1.5225    2.5285 F   0  0  0  0  0  0  0  0  0  0  0  0
    7.5973    0.0612    1.2483 C   0  0  0  0  0  0  0  0  0  0  0  0
    8.3854   -1.4730    2.0741 Br  0  0  0  0  0  0  0  0  0  0  0  0
    6.5955   -0.1084    0.2849 C   0  0  0  0  0  0  0  0  0  0  0  0
    4.0310   -0.1086   -1.4116 C   0  0  0  0  0  0  0  0  0  0  0  0
    3.7829   -1.1112   -0.5360 N   0  0  0  0  0  0  0  0  0  0  0  0
   -0.8210   -2.3820    0.8447 C   0  0  0  0  0  0  0  0  0  0  0  0
   -0.8094   -3.7582    1.1315 O   0  0  0  0  0  0  0  0  0  0  0  0
   -1.9105   -4.6372    0.9266 C   0  0  0  0  0  0  0  0  0  0  0  0
   -1.9506   -1.7414    0.3055 C   0  0  0  0  0  0  0  0  0  0  0  0
   -1.9302   -0.3669    0.0318 C   0  0  0  0  0  0  0  0  0  0  0  0
   -3.0863    0.2549   -0.5452 N   0  0  0  0  0  0  0  0  0  0  0  0
   -3.1219    0.4808   -1.9899 C   0  0  0  0  0  0  0  0  0  0  0  0
   -4.2132    0.6396    0.3090 C   0  0  0  0  0  0  0  0  0  0  0  0
   -5.3182   -0.4208    0.2550 C   0  0  0  0  0  0  0  0  0  0  0  0
   -6.5318    0.0563    0.9523 N   0  0  0  0  0  0  0  0  0  0  0  0
   -6.4262   -0.1629    2.4064 C   0  0  0  0  0  0  0  0  0  0  0  0
   -7.7219   -0.6415    0.4390 C   0  0  0  0  0  0  0  0  0  0  0  0
   -1.8666    4.2109   -0.7745 H   0  0  0  0  0  0  0  0  0  0  0  0
   -0.8647    5.7288   -1.1211 H   0  0  0  0  0  0  0  0  0  0  0  0
    1.1755    4.5190   -0.9794 H   0  0  0  0  0  0  0  0  0  0  0  0
   -1.6723    2.3119    0.2662 H   0  0  0  0  0  0  0  0  0  0  0  0
    1.2338    0.3183    1.1016 H   0  0  0  0  0  0  0  0  0  0  0  0
    1.6388   -3.7246   -0.2741 H   0  0  0  0  0  0  0  0  0  0  0  0
    3.3224   -3.6410    0.3392 H   0  0  0  0  0  0  0  0  0  0  0  0
    1.5080   -0.5196   -3.5942 H   0  0  0  0  0  0  0  0  0  0  0  0
    5.2949    2.5216   -2.6433 H   0  0  0  0  0  0  0  0  0  0  0  0
    5.9960    3.1741   -0.4282 H   0  0  0  0  0  0  0  0  0  0  0  0
    7.7742    3.4582    1.2517 H   0  0  0  0  0  0  0  0  0  0  0  0
    6.3005   -1.1107    0.0044 H   0  0  0  0  0  0  0  0  0  0  0  0
   -1.6269   -5.6562    1.2587 H   0  0  0  0  0  0  0  0  0  0  0  0
   -2.7827   -4.3006    1.5260 H   0  0  0  0  0  0  0  0  0  0  0  0
   -2.1755   -4.6743   -0.1514 H   0  0  0  0  0  0  0  0  0  0  0  0
   -2.8446   -2.3051    0.0809 H   0  0  0  0  0  0  0  0  0  0  0  0
   -4.0809    0.9517   -2.2965 H   0  0  0  0  0  0  0  0  0  0  0  0
   -2.2894    1.1518   -2.2877 H   0  0  0  0  0  0  0  0  0  0  0  0
   -3.0162   -0.4869   -2.5235 H   0  0  0  0  0  0  0  0  0  0  0  0
   -4.6182    1.6181   -0.0288 H   0  0  0  0  0  0  0  0  0  0  0  0
   -3.8597    0.7728    1.3531 H   0  0  0  0  0  0  0  0  0  0  0  0
   -5.5380   -0.6124   -0.8197 H   0  0  0  0  0  0  0  0  0  0  0  0
   -4.9546   -1.3779    0.6909 H   0  0  0  0  0  0  0  0  0  0  0  0
   -6.3282   -1.2438    2.6485 H   0  0  0  0  0  0  0  0  0  0  0  0
   -7.3243    0.2399    2.9159 H   0  0  0  0  0  0  0  0  0  0  0  0
   -5.5550    0.3819    2.8231 H   0  0  0  0  0  0  0  0  0  0  0  0
   -8.6330   -0.2968    0.9745 H   0  0  0  0  0  0  0  0  0  0  0  0
   -7.8695   -0.4023   -0.6361 H   0  0  0  0  0  0  0  0  0  0  0  0
   -7.6237   -1.7436    0.5556 H   0  0  0  0  0  0  0  0  0  0  0  0
  1  2  2  0
  2  3  1  0
  3  4  2  0
  3  5  1  0
  5  6  1  0
  6  7  2  0
  7  8  1  0
  8  9  1  0
  9 10  1  0
 10 11  1  0
 11 12  2  0
 12 13  1  0
 13 14  2  0
 14 15  1  0
 15 16  2  0
 16 17  1  0
 17 18  1  0
 18 19  2  0
 19 20  1  0
 20 21  2  0
 21 22  1  0
 21 23  1  0
 23 24  1  0
 23 25  2  0
 17 26  1  0
 26 27  2  0
  8 28  2  0
 28 29  1  0
 29 30  1  0
 28 31  1  0
 31 32  2  0
 32 33  1  0
 33 34  1  0
 33 35  1  0
 35 36  1  0
 36 37  1  0
 37 38  1  0
 37 39  1  0
 32  6  1  0
 27 11  1  0
 26 14  1  0
 25 18  1  0
  1 40  1  0
  1 41  1  0
  2 42  1  0
  5 43  1  0
  7 44  1  0
 10 45  1  0
 10 46  1  0
 13 47  1  0
 16 48  1  0
 19 49  1  0
 20 50  1  0
 25 51  1  0
 30 52  1  0
 30 53  1  0
 30 54  1  0
 31 55  1  0
 34 56  1  0
 34 57  1  0
 34 58  1  0
 35 59  1  0
 35 60  1  0
 36 61  1  0
 36 62  1  0
 38 63  1  0
 38 64  1  0
 38 65  1  0
 39 66  1  0
 39 67  1  0
 39 68  1  0
M  END
