REMARK  Name = 
REMARK  5 active torsions:
REMARK  status: ('A' for Active; 'I' for Inactive)
REMARK    1  A    between atoms: C_2  and  C_3
REMARK    2  A    between atoms: C_2  and  C_6
REMARK    3  A    between atoms: C_6  and  C_7
REMARK    4  A    between atoms: C_10  and  N_11
REMARK    5  A    between atoms: N_11  and  C_12
REMARK                            x       y       z     vdW  Elec       q    Type
REMARK                         _______ _______ _______ _____ _____    ______ ____
ROOT
ATOM      1  C   UNL     1       2.609  -0.504  -2.521  0.00  0.00    +0.000 A 
ATOM      2  C   UNL     1       3.405  -1.638  -2.411  0.00  0.00    +0.000 A 
ATOM      3  C   UNL     1       3.154  -2.752  -3.247  0.00  0.00    +0.000 A 
ATOM      4  C   UNL     1       3.812  -3.992  -3.156  0.00  0.00    +0.000 A 
ATOM      5  N   UNL     1       3.478  -5.038  -3.934  0.00  0.00    +0.000 NA
ATOM      6  C   UNL     1       2.501  -4.841  -4.824  0.00  0.00    +0.000 A 
ATOM      7  N   UNL     1       1.818  -3.709  -5.004  0.00  0.00    +0.000 NA
ATOM      8  C   UNL     1       2.142  -2.682  -4.204  0.00  0.00    +0.000 A 
ATOM      9  C   UNL     1       1.456  -1.480  -4.271  0.00  0.00    +0.000 A 
ATOM     10  N   UNL     1       1.661  -0.403  -3.471  0.00  0.00    +0.000 NA
ENDROOT
BRANCH   4  11
ATOM     11  N   UNL     1       4.859  -4.143  -2.216  0.00  0.00    +0.000 N 
ATOM     12  H   UNL     1       5.360  -3.326  -1.992  0.00  0.00    +0.000 HD
BRANCH  11  13
ATOM     13  C   UNL     1       5.271  -5.322  -1.562  0.00  0.00    +0.000 A 
ATOM     14  C   UNL     1       4.366  -6.342  -1.235  0.00  0.00    +0.000 A 
ATOM     15  C   UNL     1       4.761  -7.442  -0.469  0.00  0.00    +0.000 A 
ATOM     16  C   UNL     1       6.074  -7.539  -0.015  0.00  0.00    +0.000 A 
ATOM     17  C   UNL     1       6.984  -6.536  -0.339  0.00  0.00    +0.000 A 
ATOM     18 BR   UNL     1       8.767  -6.656   0.280  0.00  0.00    +0.000 Br
ATOM     19  C   UNL     1       6.590  -5.432  -1.100  0.00  0.00    +0.000 A 
ENDBRANCH  11  13
ENDBRANCH   4  11
BRANCH   1  20
ATOM     20  C   UNL     1       2.731   0.635  -1.545  0.00  0.00    +0.000 C 
BRANCH  20  22
ATOM     21  O   UNL     1       3.538   0.216   0.663  0.00  0.00    +0.000 OA
ATOM     22  C   UNL     1       2.574   0.183  -0.110  0.00  0.00    +0.000 C 
BRANCH  22  23
ATOM     23  C   UNL     1       1.310  -0.405   0.418  0.00  0.00    +0.000 C 
ATOM     24  C   UNL     1       0.047  -0.324  -0.002  0.00  0.00    +0.000 C 
ATOM     25 CL   UNL     1      -0.583   0.579  -1.301  0.00  0.00    +0.000 Cl
ENDBRANCH  22  23
ENDBRANCH  20  22
ENDBRANCH   1  20
TORSDOF 5
