
     RDKit          3D

 65 69  0  0  0  0  0  0  0  0999 V2000
    5.6809   -4.0649   -0.7410 C   0  0  0  0  0  0  0  0  0  0  0  0
    5.0994   -2.7758   -0.5616 O   0  0  0  0  0  0  0  0  0  0  0  0
    3.7375   -2.5439   -0.3127 C   0  0  0  0  0  0  0  0  0  0  0  0
    2.8018   -3.5896   -0.2513 C   0  0  0  0  0  0  0  0  0  0  0  0
    1.4533   -3.3230   -0.0045 C   0  0  0  0  0  0  0  0  0  0  0  0
    0.5691   -4.3520    0.0217 N   0  0  0  0  0  0  0  0  0  0  0  0
   -0.7479   -4.1360    0.2425 C   0  0  0  0  0  0  0  0  0  0  0  0
   -1.2030   -2.8774    0.4487 N   0  0  0  0  0  0  0  0  0  0  0  0
   -0.3764   -1.7953    0.4533 C   0  0  0  0  0  0  0  0  0  0  0  0
   -0.9399   -0.4852    0.6923 N   0  0  0  0  0  0  0  0  0  0  0  0
   -2.3450   -0.2003    0.5953 C   0  0  0  0  0  0  0  0  0  0  0  0
   -3.3005   -0.9783    1.2668 C   0  0  0  0  0  0  0  0  0  0  0  0
   -4.6619   -0.6858    1.1461 C   0  0  0  0  0  0  0  0  0  0  0  0
   -5.0883    0.4072    0.3679 C   0  0  0  0  0  0  0  0  0  0  0  0
   -6.4453    0.7209    0.1986 O   0  0  0  0  0  0  0  0  0  0  0  0
   -7.5243   -0.0634    0.6991 C   0  0  0  0  0  0  0  0  0  0  0  0
   -8.8187    0.5408    0.2429 C   0  0  0  0  0  0  0  0  0  0  0  0
   -9.3655    0.1828   -0.9999 C   0  0  0  0  0  0  0  0  0  0  0  0
  -10.5482    0.7797   -1.4463 C   0  0  0  0  0  0  0  0  0  0  0  0
  -11.1874    1.7421   -0.6607 C   0  0  0  0  0  0  0  0  0  0  0  0
  -10.6415    2.1137    0.5706 C   0  0  0  0  0  0  0  0  0  0  0  0
  -11.2593    3.0512    1.3282 F   0  0  0  0  0  0  0  0  0  0  0  0
   -9.4566    1.5209    1.0197 C   0  0  0  0  0  0  0  0  0  0  0  0
   -4.1284    1.2123   -0.2619 C   0  0  0  0  0  0  0  0  0  0  0  0
   -4.6209    2.5975   -1.2240 Cl  0  0  0  0  0  0  0  0  0  0  0  0
   -2.7677    0.9124   -0.1422 C   0  0  0  0  0  0  0  0  0  0  0  0
    1.0096   -1.9961    0.2057 C   0  0  0  0  0  0  0  0  0  0  0  0
    1.9554   -0.9504    0.1342 C   0  0  0  0  0  0  0  0  0  0  0  0
    3.3129   -1.2225   -0.1271 C   0  0  0  0  0  0  0  0  0  0  0  0
    4.2744   -0.2034   -0.2166 O   0  0  0  0  0  0  0  0  0  0  0  0
    3.9996    1.1893   -0.0877 C   0  0  0  0  0  0  0  0  0  0  0  0
    5.2805    1.9933   -0.3006 C   0  0  0  0  0  0  0  0  0  0  0  0
    6.3196    1.7056    0.7896 C   0  0  0  0  0  0  0  0  0  0  0  0
    7.5572    2.4396    0.5196 N   0  0  0  0  0  0  0  0  0  0  0  0
    7.8794    3.6312    1.0520 C   0  0  0  0  0  0  0  0  0  0  0  0
    9.0857    4.0307    0.5251 C   0  0  0  0  0  0  0  0  0  0  0  0
    9.5280    3.1044   -0.3465 N   0  0  0  0  0  0  0  0  0  0  0  0
    8.5732    2.1499   -0.3310 C   0  0  0  0  0  0  0  0  0  0  0  0
    8.6609    0.9765   -1.1531 N   0  0  0  0  0  4  0  0  0  0  0  0
    7.7665    0.1086   -1.1511 O   0  0  0  0  0  0  0  0  0  0  0  0
    9.7559    0.8039   -1.9670 O   0  0  0  0  0  1  0  0  0  0  0  0
    5.5190   -4.6863    0.1661 H   0  0  0  0  0  0  0  0  0  0  0  0
    6.7722   -3.9503   -0.9027 H   0  0  0  0  0  0  0  0  0  0  0  0
    5.2402   -4.5625   -1.6318 H   0  0  0  0  0  0  0  0  0  0  0  0
    3.1108   -4.6148   -0.4037 H   0  0  0  0  0  0  0  0  0  0  0  0
   -1.4375   -4.9683    0.2568 H   0  0  0  0  0  0  0  0  0  0  0  0
   -0.3256    0.3455    0.8153 H   0  0  0  0  0  0  0  0  0  0  0  0
   -2.9958   -1.7990    1.9004 H   0  0  0  0  0  0  0  0  0  0  0  0
   -5.3731   -1.3103    1.6680 H   0  0  0  0  0  0  0  0  0  0  0  0
   -7.4411   -1.1051    0.3167 H   0  0  0  0  0  0  0  0  0  0  0  0
   -7.4865   -0.0938    1.8121 H   0  0  0  0  0  0  0  0  0  0  0  0
   -8.8742   -0.5547   -1.6228 H   0  0  0  0  0  0  0  0  0  0  0  0
  -10.9672    0.4981   -2.4029 H   0  0  0  0  0  0  0  0  0  0  0  0
  -12.1034    2.2016   -1.0084 H   0  0  0  0  0  0  0  0  0  0  0  0
   -9.0357    1.8251    1.9693 H   0  0  0  0  0  0  0  0  0  0  0  0
   -2.0364    1.5353   -0.6403 H   0  0  0  0  0  0  0  0  0  0  0  0
    1.6616    0.0757    0.2622 H   0  0  0  0  0  0  0  0  0  0  0  0
    3.5831    1.4032    0.9210 H   0  0  0  0  0  0  0  0  0  0  0  0
    3.2594    1.4938   -0.8587 H   0  0  0  0  0  0  0  0  0  0  0  0
    5.0298    3.0764   -0.2870 H   0  0  0  0  0  0  0  0  0  0  0  0
    5.6994    1.7530   -1.3015 H   0  0  0  0  0  0  0  0  0  0  0  0
    5.9084    2.0219    1.7740 H   0  0  0  0  0  0  0  0  0  0  0  0
    6.5308    0.6200    0.8709 H   0  0  0  0  0  0  0  0  0  0  0  0
    7.2777    4.1770    1.7665 H   0  0  0  0  0  0  0  0  0  0  0  0
    9.6096    4.9474    0.7573 H   0  0  0  0  0  0  0  0  0  0  0  0
  1  2  1  0
  2  3  1  0
  3  4  2  0
  4  5  1  0
  5  6  2  0
  6  7  1  0
  7  8  2  0
  8  9  1  0
  9 10  1  0
 10 11  1  0
 11 12  2  0
 12 13  1  0
 13 14  2  0
 14 15  1  0
 15 16  1  0
 16 17  1  0
 17 18  2  0
 18 19  1  0
 19 20  2  0
 20 21  1  0
 21 22  1  0
 21 23  2  0
 14 24  1  0
 24 25  1  0
 24 26  2  0
  9 27  2  0
 27 28  1  0
 28 29  2  0
 29 30  1  0
 30 31  1  0
 31 32  1  0
 32 33  1  0
 33 34  1  0
 34 35  1  0
 35 36  2  0
 36 37  1  0
 37 38  2  0
 38 39  1  0
 39 40  2  0
 39 41  1  0
 29  3  1  0
 38 34  1  0
 27  5  1  0
 26 11  1  0
 23 17  1  0
  1 42  1  0
  1 43  1  0
  1 44  1  0
  4 45  1  0
  7 46  1  0
 10 47  1  0
 12 48  1  0
 13 49  1  0
 16 50  1  0
 16 51  1  0
 18 52  1  0
 19 53  1  0
 20 54  1  0
 23 55  1  0
 26 56  1  0
 28 57  1  0
 31 58  1  0
 31 59  1  0
 32 60  1  0
 32 61  1  0
 33 62  1  0
 33 63  1  0
 35 64  1  0
 36 65  1  0
M  CHG  2  39   1  41  -1
M  END
