MODEL 1
REMARK VINA RESULT:    -7.656      0.000      0.000
REMARK INTER + INTRA:         -10.439
REMARK INTER:                  -9.893
REMARK INTRA:                  -0.545
REMARK UNBOUND:                -0.545
REMARK  Name = 
REMARK  5 active torsions:
REMARK  status: ('A' for Active; 'I' for Inactive)
REMARK    1  A    between atoms: C_2  and  C_3
REMARK    2  A    between atoms: C_32  and  O_33
REMARK    3  A    between atoms: O_33  and  C_34
REMARK    4  A    between atoms: C_34  and  C_35
REMARK    5  A    between atoms: C_35  and  C_36
REMARK                            x       y       z     vdW  Elec       q    Type
REMARK                         _______ _______ _______ _____ _____    ______ ____
ROOT
ATOM      1  C   UNL     1      23.726   2.553  52.269  0.00  0.00    +0.000 C 
ATOM      2  O   UNL     1      23.245   1.552  52.717  0.00  0.00    +0.000 OA
ATOM      3  N   UNL     1      22.916   3.653  51.591  0.00  0.00    +0.000 N 
ATOM      4  C   UNL     1      23.669   5.053  50.727  0.00  0.00    +0.000 C 
ATOM      5  C   UNL     1      24.038   6.876  50.878  0.00  0.00    +0.000 C 
ATOM      6  C   UNL     1      24.291   8.275  49.820  0.00  0.00    +0.000 C 
ATOM      7  C   UNL     1      23.300   8.549  48.707  0.00  0.00    +0.000 C 
ATOM      8  C   UNL     1      21.979   8.515  49.447  0.00  0.00    +0.000 C 
ATOM      9  C   UNL     1      21.089   9.739  49.327  0.00  0.00    +0.000 C 
ATOM     10  C   UNL     1      20.505   9.977  47.941  0.00  0.00    +0.000 C 
ATOM     11  N   UNL     1      19.965   8.751  47.376  0.00  0.00    +0.000 N 
ATOM     12  C   UNL     1      20.725   7.717  46.902  0.00  0.00    +0.000 A 
ATOM     13  C   UNL     1      19.941   6.596  46.768  0.00  0.00    +0.000 A 
ATOM     14  C   UNL     1      18.584   7.078  46.876  0.00  0.00    +0.000 A 
ATOM     15  C   UNL     1      17.324   6.543  46.667  0.00  0.00    +0.000 A 
ATOM     16  C   UNL     1      16.156   7.328  46.831  0.00  0.00    +0.000 A 
ATOM     17  C   UNL     1      16.254   8.644  47.263  0.00  0.00    +0.000 A 
ATOM     18  C   UNL     1      17.496   9.209  47.520  0.00  0.00    +0.000 A 
ATOM     19  C   UNL     1      18.637   8.423  47.279  0.00  0.00    +0.000 A 
ATOM     20  C   UNL     1      20.526   5.369  46.283  0.00  0.00    +0.000 A 
ATOM     21  C   UNL     1      20.318   5.000  45.013  0.00  0.00    +0.000 A 
ATOM     22  C   UNL     1      21.181   4.028  44.513  0.00  0.00    +0.000 A 
ATOM     23  N   UNL     1      22.036   3.328  45.246  0.00  0.00    +0.000 NA
ATOM     24  C   UNL     1      21.962   3.593  46.541  0.00  0.00    +0.000 A 
ATOM     25  N   UNL     1      21.348   4.665  47.089  0.00  0.00    +0.000 NA
ATOM     26  N   UNL     1      22.298   2.528  47.351  0.00  0.00    +0.000 N 
ATOM     27  C   UNL     1      21.580   2.268  48.502  0.00  0.00    +0.000 A 
ATOM     28  C   UNL     1      22.299   2.270  49.664  0.00  0.00    +0.000 A 
ATOM     29  C   UNL     1      21.764   2.892  50.789  0.00  0.00    +0.000 A 
ATOM     30  C   UNL     1      20.426   2.332  50.989  0.00  0.00    +0.000 A 
ATOM     31  C   UNL     1      19.606   2.121  49.833  0.00  0.00    +0.000 A 
ATOM     32  C   UNL     1      20.183   2.324  48.595  0.00  0.00    +0.000 A 
ATOM     33  F   UNL     1      19.403   2.521  47.511  0.00  0.00    +0.000 F 
ATOM     34  H   UNL     1      23.056   1.949  47.106  0.00  0.00    +0.000 HD
ENDROOT
BRANCH   1  36
ATOM     35  C   UNL     1      26.412   2.431  51.529  0.00  0.00    +0.000 C 
ATOM     36  C   UNL     1      25.299   2.652  52.284  0.00  0.00    +0.000 C 
ENDBRANCH   1  36
BRANCH  30  37
ATOM     37  O   UNL     1      19.847   1.677  52.066  0.00  0.00    +0.000 OA
BRANCH  37  38
ATOM     38  C   UNL     1      20.080   0.307  52.340  0.00  0.00    +0.000 C 
BRANCH  38  39
ATOM     39  C   UNL     1      20.312   0.152  53.848  0.00  0.00    +0.000 C 
BRANCH  39  40
ATOM     40  C   UNL     1      21.050  -1.126  54.161  0.00  0.00    +0.000 C 
ATOM     41  F   UNL     1      21.821  -0.937  55.267  0.00  0.00    +0.000 F 
ENDBRANCH  39  40
ENDBRANCH  38  39
ENDBRANCH  37  38
ENDBRANCH  30  37
TORSDOF 5
ENDMDL
MODEL 2
REMARK VINA RESULT:    -7.605      2.692      5.827
REMARK INTER + INTRA:         -10.373
REMARK INTER:                  -9.830
REMARK INTRA:                  -0.543
REMARK UNBOUND:                -0.545
REMARK  Name = 
REMARK  5 active torsions:
REMARK  status: ('A' for Active; 'I' for Inactive)
REMARK    1  A    between atoms: C_2  and  C_3
REMARK    2  A    between atoms: C_32  and  O_33
REMARK    3  A    between atoms: O_33  and  C_34
REMARK    4  A    between atoms: C_34  and  C_35
REMARK    5  A    between atoms: C_35  and  C_36
REMARK                            x       y       z     vdW  Elec       q    Type
REMARK                         _______ _______ _______ _____ _____    ______ ____
ROOT
ATOM      1  C   UNL     1      22.034   2.052  51.931  0.00  0.00    +0.000 C 
ATOM      2  O   UNL     1      22.928   1.974  52.725  0.00  0.00    +0.000 OA
ATOM      3  N   UNL     1      22.148   2.779  50.596  0.00  0.00    +0.000 N 
ATOM      4  C   UNL     1      20.736   3.079  49.504  0.00  0.00    +0.000 C 
ATOM      5  C   UNL     1      19.925   2.508  47.923  0.00  0.00    +0.000 C 
ATOM      6  C   UNL     1      18.874   3.162  46.655  0.00  0.00    +0.000 C 
ATOM      7  C   UNL     1      19.226   4.490  46.016  0.00  0.00    +0.000 C 
ATOM      8  C   UNL     1      20.675   4.278  45.626  0.00  0.00    +0.000 C 
ATOM      9  C   UNL     1      21.036   4.498  44.168  0.00  0.00    +0.000 C 
ATOM     10  C   UNL     1      20.938   5.941  43.692  0.00  0.00    +0.000 C 
ATOM     11  N   UNL     1      21.559   6.854  44.637  0.00  0.00    +0.000 N 
ATOM     12  C   UNL     1      21.024   7.195  45.849  0.00  0.00    +0.000 A 
ATOM     13  C   UNL     1      21.993   7.780  46.629  0.00  0.00    +0.000 A 
ATOM     14  C   UNL     1      23.073   8.078  45.717  0.00  0.00    +0.000 A 
ATOM     15  C   UNL     1      24.251   8.802  45.782  0.00  0.00    +0.000 A 
ATOM     16  C   UNL     1      25.097   8.931  44.652  0.00  0.00    +0.000 A 
ATOM     17  C   UNL     1      24.782   8.280  43.467  0.00  0.00    +0.000 A 
ATOM     18  C   UNL     1      23.630   7.513  43.370  0.00  0.00    +0.000 A 
ATOM     19  C   UNL     1      22.778   7.465  44.488  0.00  0.00    +0.000 A 
ATOM     20  C   UNL     1      21.664   8.225  47.962  0.00  0.00    +0.000 A 
ATOM     21  C   UNL     1      21.465   9.530  48.189  0.00  0.00    +0.000 A 
ATOM     22  C   UNL     1      20.812   9.848  49.377  0.00  0.00    +0.000 A 
ATOM     23  N   UNL     1      20.560   8.989  50.354  0.00  0.00    +0.000 NA
ATOM     24  C   UNL     1      21.046   7.778  50.130  0.00  0.00    +0.000 A 
ATOM     25  N   UNL     1      21.471   7.310  48.935  0.00  0.00    +0.000 NA
ATOM     26  N   UNL     1      21.386   7.089  51.277  0.00  0.00    +0.000 N 
ATOM     27  C   UNL     1      22.536   6.325  51.320  0.00  0.00    +0.000 A 
ATOM     28  C   UNL     1      22.358   5.000  51.608  0.00  0.00    +0.000 A 
ATOM     29  C   UNL     1      23.071   4.049  50.886  0.00  0.00    +0.000 A 
ATOM     30  C   UNL     1      24.484   4.428  50.963  0.00  0.00    +0.000 A 
ATOM     31  C   UNL     1      24.815   5.816  50.837  0.00  0.00    +0.000 A 
ATOM     32  C   UNL     1      23.773   6.720  50.794  0.00  0.00    +0.000 A 
ATOM     33  F   UNL     1      23.974   7.961  50.301  0.00  0.00    +0.000 F 
ATOM     34  H   UNL     1      20.805   7.145  52.070  0.00  0.00    +0.000 HD
ENDROOT
BRANCH   1  36
ATOM     35  C   UNL     1      19.727   0.496  52.099  0.00  0.00    +0.000 C 
ATOM     36  C   UNL     1      20.639   1.469  52.376  0.00  0.00    +0.000 C 
ENDBRANCH   1  36
BRANCH  30  37
ATOM     37  O   UNL     1      25.601   3.747  51.423  0.00  0.00    +0.000 OA
BRANCH  37  38
ATOM     38  C   UNL     1      26.057   2.542  50.834  0.00  0.00    +0.000 C 
BRANCH  38  39
ATOM     39  C   UNL     1      26.812   1.741  51.901  0.00  0.00    +0.000 C 
BRANCH  39  40
ATOM     40  C   UNL     1      26.109   0.444  52.213  0.00  0.00    +0.000 C 
ATOM     41  F   UNL     1      26.757  -0.577  51.588  0.00  0.00    +0.000 F 
ENDBRANCH  39  40
ENDBRANCH  38  39
ENDBRANCH  37  38
ENDBRANCH  30  37
TORSDOF 5
ENDMDL
MODEL 3
REMARK VINA RESULT:    -7.471      4.583      6.698
REMARK INTER + INTRA:         -10.199
REMARK INTER:                  -9.738
REMARK INTRA:                  -0.461
REMARK UNBOUND:                -0.545
REMARK  Name = 
REMARK  5 active torsions:
REMARK  status: ('A' for Active; 'I' for Inactive)
REMARK    1  A    between atoms: C_2  and  C_3
REMARK    2  A    between atoms: C_32  and  O_33
REMARK    3  A    between atoms: O_33  and  C_34
REMARK    4  A    between atoms: C_34  and  C_35
REMARK    5  A    between atoms: C_35  and  C_36
REMARK                            x       y       z     vdW  Elec       q    Type
REMARK                         _______ _______ _______ _____ _____    ______ ____
ROOT
ATOM      1  C   UNL     1      15.472  -0.324  52.696  0.00  0.00    +0.000 C 
ATOM      2  O   UNL     1      14.370  -0.054  53.077  0.00  0.00    +0.000 OA
ATOM      3  N   UNL     1      16.540   0.718  52.384  0.00  0.00    +0.000 N 
ATOM      4  C   UNL     1      18.123   0.317  51.604  0.00  0.00    +0.000 C 
ATOM      5  C   UNL     1      19.943   0.096  51.952  0.00  0.00    +0.000 C 
ATOM      6  C   UNL     1      21.488   0.223  51.091  0.00  0.00    +0.000 C 
ATOM      7  C   UNL     1      21.776   1.463  50.271  0.00  0.00    +0.000 C 
ATOM      8  C   UNL     1      21.482   2.571  51.260  0.00  0.00    +0.000 C 
ATOM      9  C   UNL     1      22.590   3.575  51.523  0.00  0.00    +0.000 C 
ATOM     10  C   UNL     1      22.930   4.480  50.346  0.00  0.00    +0.000 C 
ATOM     11  N   UNL     1      21.729   5.018  49.727  0.00  0.00    +0.000 N 
ATOM     12  C   UNL     1      20.868   4.293  48.950  0.00  0.00    +0.000 A 
ATOM     13  C   UNL     1      19.684   4.979  48.815  0.00  0.00    +0.000 A 
ATOM     14  C   UNL     1      19.975   6.315  49.282  0.00  0.00    +0.000 A 
ATOM     15  C   UNL     1      19.317   7.533  49.266  0.00  0.00    +0.000 A 
ATOM     16  C   UNL     1      19.923   8.701  49.793  0.00  0.00    +0.000 A 
ATOM     17  C   UNL     1      21.173   8.629  50.391  0.00  0.00    +0.000 A 
ATOM     18  C   UNL     1      21.852   7.421  50.462  0.00  0.00    +0.000 A 
ATOM     19  C   UNL     1      21.252   6.297  49.866  0.00  0.00    +0.000 A 
ATOM     20  C   UNL     1      18.614   4.408  48.034  0.00  0.00    +0.000 A 
ATOM     21  C   UNL     1      18.388   4.865  46.795  0.00  0.00    +0.000 A 
ATOM     22  C   UNL     1      17.604   4.052  45.981  0.00  0.00    +0.000 A 
ATOM     23  N   UNL     1      16.929   2.991  46.398  0.00  0.00    +0.000 NA
ATOM     24  C   UNL     1      17.013   2.792  47.704  0.00  0.00    +0.000 A 
ATOM     25  N   UNL     1      17.920   3.361  48.528  0.00  0.00    +0.000 NA
ATOM     26  N   UNL     1      15.903   2.181  48.251  0.00  0.00    +0.000 N 
ATOM     27  C   UNL     1      15.409   2.590  49.474  0.00  0.00    +0.000 A 
ATOM     28  C   UNL     1      15.351   1.628  50.444  0.00  0.00    +0.000 A 
ATOM     29  C   UNL     1      15.751   1.947  51.738  0.00  0.00    +0.000 A 
ATOM     30  C   UNL     1      15.007   3.146  52.130  0.00  0.00    +0.000 A 
ATOM     31  C   UNL     1      14.845   4.185  51.156  0.00  0.00    +0.000 A 
ATOM     32  C   UNL     1      15.277   3.928  49.870  0.00  0.00    +0.000 A 
ATOM     33  F   UNL     1      15.513   4.950  49.020  0.00  0.00    +0.000 F 
ATOM     34  H   UNL     1      15.460   1.449  47.764  0.00  0.00    +0.000 HD
ENDROOT
BRANCH   1  36
ATOM     35  C   UNL     1      15.174  -3.065  52.281  0.00  0.00    +0.000 C 
ATOM     36  C   UNL     1      15.765  -1.843  52.391  0.00  0.00    +0.000 C 
ENDBRANCH   1  36
BRANCH  30  37
ATOM     37  O   UNL     1      14.151   3.399  53.191  0.00  0.00    +0.000 OA
BRANCH  37  38
ATOM     38  C   UNL     1      13.148   4.398  53.142  0.00  0.00    +0.000 C 
BRANCH  38  39
ATOM     39  C   UNL     1      12.245   4.233  54.370  0.00  0.00    +0.000 C 
BRANCH  39  40
ATOM     40  C   UNL     1      11.740   2.817  54.495  0.00  0.00    +0.000 C 
ATOM     41  F   UNL     1      12.013   2.354  55.745  0.00  0.00    +0.000 F 
ENDBRANCH  39  40
ENDBRANCH  38  39
ENDBRANCH  37  38
ENDBRANCH  30  37
TORSDOF 5
ENDMDL
MODEL 4
REMARK VINA RESULT:    -7.053      3.544      6.554
REMARK INTER + INTRA:          -9.660
REMARK INTER:                  -9.229
REMARK INTRA:                  -0.430
REMARK UNBOUND:                -0.545
REMARK  Name = 
REMARK  5 active torsions:
REMARK  status: ('A' for Active; 'I' for Inactive)
REMARK    1  A    between atoms: C_2  and  C_3
REMARK    2  A    between atoms: C_32  and  O_33
REMARK    3  A    between atoms: O_33  and  C_34
REMARK    4  A    between atoms: C_34  and  C_35
REMARK    5  A    between atoms: C_35  and  C_36
REMARK                            x       y       z     vdW  Elec       q    Type
REMARK                         _______ _______ _______ _____ _____    ______ ____
ROOT
ATOM      1  C   UNL     1      25.817   2.629  51.198  0.00  0.00    +0.000 C 
ATOM      2  O   UNL     1      26.958   2.989  51.253  0.00  0.00    +0.000 OA
ATOM      3  N   UNL     1      24.851   3.040  50.092  0.00  0.00    +0.000 N 
ATOM      4  C   UNL     1      23.079   2.672  50.132  0.00  0.00    +0.000 C 
ATOM      5  C   UNL     1      21.771   1.555  49.409  0.00  0.00    +0.000 C 
ATOM      6  C   UNL     1      20.028   1.581  49.087  0.00  0.00    +0.000 C 
ATOM      7  C   UNL     1      19.426   2.776  48.377  0.00  0.00    +0.000 C 
ATOM      8  C   UNL     1      20.321   2.905  47.162  0.00  0.00    +0.000 C 
ATOM      9  C   UNL     1      19.646   2.887  45.803  0.00  0.00    +0.000 C 
ATOM     10  C   UNL     1      18.772   4.097  45.503  0.00  0.00    +0.000 C 
ATOM     11  N   UNL     1      19.445   5.337  45.853  0.00  0.00    +0.000 N 
ATOM     12  C   UNL     1      19.647   5.773  47.134  0.00  0.00    +0.000 A 
ATOM     13  C   UNL     1      20.594   6.770  47.135  0.00  0.00    +0.000 A 
ATOM     14  C   UNL     1      20.731   7.151  45.748  0.00  0.00    +0.000 A 
ATOM     15  C   UNL     1      21.359   8.177  45.063  0.00  0.00    +0.000 A 
ATOM     16  C   UNL     1      21.260   8.286  43.653  0.00  0.00    +0.000 A 
ATOM     17  C   UNL     1      20.573   7.325  42.925  0.00  0.00    +0.000 A 
ATOM     18  C   UNL     1      19.960   6.259  43.569  0.00  0.00    +0.000 A 
ATOM     19  C   UNL     1      20.018   6.221  44.975  0.00  0.00    +0.000 A 
ATOM     20  C   UNL     1      20.978   7.388  48.381  0.00  0.00    +0.000 A 
ATOM     21  C   UNL     1      20.494   8.598  48.690  0.00  0.00    +0.000 A 
ATOM     22  C   UNL     1      20.604   8.974  50.026  0.00  0.00    +0.000 A 
ATOM     23  N   UNL     1      21.308   8.320  50.939  0.00  0.00    +0.000 NA
ATOM     24  C   UNL     1      21.967   7.280  50.453  0.00  0.00    +0.000 A 
ATOM     25  N   UNL     1      21.741   6.698  49.254  0.00  0.00    +0.000 NA
ATOM     26  N   UNL     1      23.136   6.992  51.126  0.00  0.00    +0.000 N 
ATOM     27  C   UNL     1      24.271   6.617  50.433  0.00  0.00    +0.000 A 
ATOM     28  C   UNL     1      24.791   5.397  50.761  0.00  0.00    +0.000 A 
ATOM     29  C   UNL     1      25.228   4.552  49.745  0.00  0.00    +0.000 A 
ATOM     30  C   UNL     1      26.158   5.326  48.919  0.00  0.00    +0.000 A 
ATOM     31  C   UNL     1      25.820   6.687  48.621  0.00  0.00    +0.000 A 
ATOM     32  C   UNL     1      24.713   7.221  49.249  0.00  0.00    +0.000 A 
ATOM     33  F   UNL     1      24.119   8.325  48.746  0.00  0.00    +0.000 F 
ATOM     34  H   UNL     1      23.161   7.056  52.109  0.00  0.00    +0.000 HD
ENDROOT
BRANCH   1  36
ATOM     35  C   UNL     1      25.318   0.550  52.988  0.00  0.00    +0.000 C 
ATOM     36  C   UNL     1      25.280   1.787  52.417  0.00  0.00    +0.000 C 
ENDBRANCH   1  36
BRANCH  30  37
ATOM     37  O   UNL     1      27.483   5.114  48.570  0.00  0.00    +0.000 OA
BRANCH  37  38
ATOM     38  C   UNL     1      28.352   6.168  48.195  0.00  0.00    +0.000 C 
BRANCH  38  39
ATOM     39  C   UNL     1      29.770   5.600  48.070  0.00  0.00    +0.000 C 
BRANCH  39  40
ATOM     40  C   UNL     1      30.795   6.551  48.638  0.00  0.00    +0.000 C 
ATOM     41  F   UNL     1      30.175   7.703  49.012  0.00  0.00    +0.000 F 
ENDBRANCH  39  40
ENDBRANCH  38  39
ENDBRANCH  37  38
ENDBRANCH  30  37
TORSDOF 5
ENDMDL
MODEL 5
REMARK VINA RESULT:    -7.052      4.339      6.797
REMARK INTER + INTRA:          -9.659
REMARK INTER:                  -8.686
REMARK INTRA:                  -0.973
REMARK UNBOUND:                -0.545
REMARK  Name = 
REMARK  5 active torsions:
REMARK  status: ('A' for Active; 'I' for Inactive)
REMARK    1  A    between atoms: C_2  and  C_3
REMARK    2  A    between atoms: C_32  and  O_33
REMARK    3  A    between atoms: O_33  and  C_34
REMARK    4  A    between atoms: C_34  and  C_35
REMARK    5  A    between atoms: C_35  and  C_36
REMARK                            x       y       z     vdW  Elec       q    Type
REMARK                         _______ _______ _______ _____ _____    ______ ____
ROOT
ATOM      1  C   UNL     1      21.629   5.041  47.734  0.00  0.00    +0.000 C 
ATOM      2  O   UNL     1      22.588   5.097  48.448  0.00  0.00    +0.000 OA
ATOM      3  N   UNL     1      20.191   5.087  48.240  0.00  0.00    +0.000 N 
ATOM      4  C   UNL     1      18.754   4.783  47.183  0.00  0.00    +0.000 C 
ATOM      5  C   UNL     1      17.352   5.632  46.292  0.00  0.00    +0.000 C 
ATOM      6  C   UNL     1      15.714   5.259  45.726  0.00  0.00    +0.000 C 
ATOM      7  C   UNL     1      14.736   4.602  46.679  0.00  0.00    +0.000 C 
ATOM      8  C   UNL     1      14.823   5.505  47.892  0.00  0.00    +0.000 C 
ATOM      9  C   UNL     1      13.526   6.112  48.395  0.00  0.00    +0.000 C 
ATOM     10  C   UNL     1      12.539   5.117  48.991  0.00  0.00    +0.000 C 
ATOM     11  N   UNL     1      13.198   4.198  49.905  0.00  0.00    +0.000 N 
ATOM     12  C   UNL     1      14.024   3.179  49.516  0.00  0.00    +0.000 A 
ATOM     13  C   UNL     1      14.744   2.734  50.599  0.00  0.00    +0.000 A 
ATOM     14  C   UNL     1      14.084   3.314  51.746  0.00  0.00    +0.000 A 
ATOM     15  C   UNL     1      14.164   3.153  53.119  0.00  0.00    +0.000 A 
ATOM     16  C   UNL     1      13.313   3.875  53.993  0.00  0.00    +0.000 A 
ATOM     17  C   UNL     1      12.417   4.805  53.485  0.00  0.00    +0.000 A 
ATOM     18  C   UNL     1      12.330   5.025  52.117  0.00  0.00    +0.000 A 
ATOM     19  C   UNL     1      13.139   4.240  51.275  0.00  0.00    +0.000 A 
ATOM     20  C   UNL     1      15.690   1.658  50.434  0.00  0.00    +0.000 A 
ATOM     21  C   UNL     1      15.359   0.424  50.837  0.00  0.00    +0.000 A 
ATOM     22  C   UNL     1      16.143  -0.611  50.334  0.00  0.00    +0.000 A 
ATOM     23  N   UNL     1      17.274  -0.445  49.665  0.00  0.00    +0.000 NA
ATOM     24  C   UNL     1      17.644   0.822  49.559  0.00  0.00    +0.000 A 
ATOM     25  N   UNL     1      16.854   1.893  49.791  0.00  0.00    +0.000 NA
ATOM     26  N   UNL     1      19.010   1.003  49.484  0.00  0.00    +0.000 N 
ATOM     27  C   UNL     1      19.617   2.046  50.155  0.00  0.00    +0.000 A 
ATOM     28  C   UNL     1      20.323   2.921  49.379  0.00  0.00    +0.000 A 
ATOM     29  C   UNL     1      20.207   4.287  49.622  0.00  0.00    +0.000 A 
ATOM     30  C   UNL     1      20.484   4.491  51.045  0.00  0.00    +0.000 A 
ATOM     31  C   UNL     1      19.936   3.550  51.978  0.00  0.00    +0.000 A 
ATOM     32  C   UNL     1      19.305   2.436  51.464  0.00  0.00    +0.000 A 
ATOM     33  F   UNL     1      18.452   1.727  52.235  0.00  0.00    +0.000 F 
ATOM     34  H   UNL     1      19.555   0.382  48.948  0.00  0.00    +0.000 HD
ENDROOT
BRANCH   1  36
ATOM     35  C   UNL     1      21.836   3.821  45.235  0.00  0.00    +0.000 C 
ATOM     36  C   UNL     1      21.899   4.777  46.203  0.00  0.00    +0.000 C 
ENDBRANCH   1  36
BRANCH  30  37
ATOM     37  O   UNL     1      21.424   5.269  51.704  0.00  0.00    +0.000 OA
BRANCH  37  38
ATOM     38  C   UNL     1      22.442   4.712  52.516  0.00  0.00    +0.000 C 
BRANCH  38  39
ATOM     39  C   UNL     1      23.452   4.006  51.605  0.00  0.00    +0.000 C 
BRANCH  39  40
ATOM     40  C   UNL     1      23.665   2.574  52.027  0.00  0.00    +0.000 C 
ATOM     41  F   UNL     1      22.742   1.785  51.412  0.00  0.00    +0.000 F 
ENDBRANCH  39  40
ENDBRANCH  38  39
ENDBRANCH  37  38
ENDBRANCH  30  37
TORSDOF 5
ENDMDL
MODEL 6
REMARK VINA RESULT:    -6.809      3.723      6.654
REMARK INTER + INTRA:          -9.345
REMARK INTER:                  -8.965
REMARK INTRA:                  -0.380
REMARK UNBOUND:                -0.545
REMARK  Name = 
REMARK  5 active torsions:
REMARK  status: ('A' for Active; 'I' for Inactive)
REMARK    1  A    between atoms: C_2  and  C_3
REMARK    2  A    between atoms: C_32  and  O_33
REMARK    3  A    between atoms: O_33  and  C_34
REMARK    4  A    between atoms: C_34  and  C_35
REMARK    5  A    between atoms: C_35  and  C_36
REMARK                            x       y       z     vdW  Elec       q    Type
REMARK                         _______ _______ _______ _____ _____    ______ ____
ROOT
ATOM      1  C   UNL     1      15.818   0.376  51.824  0.00  0.00    +0.000 C 
ATOM      2  O   UNL     1      14.722   0.855  51.876  0.00  0.00    +0.000 OA
ATOM      3  N   UNL     1      17.102   1.198  51.783  0.00  0.00    +0.000 N 
ATOM      4  C   UNL     1      18.735   0.478  51.486  0.00  0.00    +0.000 C 
ATOM      5  C   UNL     1      20.325  -0.012  52.331  0.00  0.00    +0.000 C 
ATOM      6  C   UNL     1      22.040  -0.214  51.927  0.00  0.00    +0.000 C 
ATOM      7  C   UNL     1      22.756   0.890  51.177  0.00  0.00    +0.000 C 
ATOM      8  C   UNL     1      22.416   2.109  52.008  0.00  0.00    +0.000 C 
ATOM      9  C   UNL     1      23.577   2.934  52.532  0.00  0.00    +0.000 C 
ATOM     10  C   UNL     1      24.376   3.670  51.465  0.00  0.00    +0.000 C 
ATOM     11  N   UNL     1      23.502   4.346  50.520  0.00  0.00    +0.000 N 
ATOM     12  C   UNL     1      22.762   3.712  49.560  0.00  0.00    +0.000 A 
ATOM     13  C   UNL     1      21.802   4.570  49.080  0.00  0.00    +0.000 A 
ATOM     14  C   UNL     1      22.196   5.874  49.563  0.00  0.00    +0.000 A 
ATOM     15  C   UNL     1      21.798   7.179  49.324  0.00  0.00    +0.000 A 
ATOM     16  C   UNL     1      22.443   8.270  49.958  0.00  0.00    +0.000 A 
ATOM     17  C   UNL     1      23.455   8.042  50.881  0.00  0.00    +0.000 A 
ATOM     18  C   UNL     1      23.859   6.748  51.178  0.00  0.00    +0.000 A 
ATOM     19  C   UNL     1      23.246   5.693  50.478  0.00  0.00    +0.000 A 
ATOM     20  C   UNL     1      20.892   4.122  48.054  0.00  0.00    +0.000 A 
ATOM     21  C   UNL     1      21.091   4.507  46.786  0.00  0.00    +0.000 A 
ATOM     22  C   UNL     1      20.419   3.770  45.814  0.00  0.00    +0.000 A 
ATOM     23  N   UNL     1      19.475   2.873  46.065  0.00  0.00    +0.000 NA
ATOM     24  C   UNL     1      19.171   2.772  47.349  0.00  0.00    +0.000 A 
ATOM     25  N   UNL     1      19.914   3.249  48.372  0.00  0.00    +0.000 NA
ATOM     26  N   UNL     1      17.864   2.400  47.588  0.00  0.00    +0.000 N 
ATOM     27  C   UNL     1      17.145   2.985  48.612  0.00  0.00    +0.000 A 
ATOM     28  C   UNL     1      16.658   2.129  49.560  0.00  0.00    +0.000 A 
ATOM     29  C   UNL     1      16.750   2.483  50.903  0.00  0.00    +0.000 A 
ATOM     30  C   UNL     1      16.158   3.817  51.032  0.00  0.00    +0.000 A 
ATOM     31  C   UNL     1      16.453   4.784  50.017  0.00  0.00    +0.000 A 
ATOM     32  C   UNL     1      17.158   4.353  48.911  0.00  0.00    +0.000 A 
ATOM     33  F   UNL     1      17.793   5.249  48.124  0.00  0.00    +0.000 F 
ATOM     34  H   UNL     1      17.441   1.714  47.023  0.00  0.00    +0.000 HD
ENDROOT
BRANCH   1  36
ATOM     35  C   UNL     1      16.038  -2.351  52.363  0.00  0.00    +0.000 C 
ATOM     36  C   UNL     1      15.900  -1.190  51.664  0.00  0.00    +0.000 C 
ENDBRANCH   1  36
BRANCH  30  37
ATOM     37  O   UNL     1      15.112   4.294  51.806  0.00  0.00    +0.000 OA
BRANCH  37  38
ATOM     38  C   UNL     1      13.788   4.407  51.315  0.00  0.00    +0.000 C 
BRANCH  38  39
ATOM     39  C   UNL     1      12.927   3.344  52.008  0.00  0.00    +0.000 C 
BRANCH  39  40
ATOM     40  C   UNL     1      12.484   3.802  53.375  0.00  0.00    +0.000 C 
ATOM     41  F   UNL     1      12.300   5.150  53.356  0.00  0.00    +0.000 F 
ENDBRANCH  39  40
ENDBRANCH  38  39
ENDBRANCH  37  38
ENDBRANCH  30  37
TORSDOF 5
ENDMDL
MODEL 7
REMARK VINA RESULT:    -6.640      4.946      8.247
REMARK INTER + INTRA:          -9.126
REMARK INTER:                  -8.221
REMARK INTRA:                  -0.906
REMARK UNBOUND:                -0.545
REMARK  Name = 
REMARK  5 active torsions:
REMARK  status: ('A' for Active; 'I' for Inactive)
REMARK    1  A    between atoms: C_2  and  C_3
REMARK    2  A    between atoms: C_32  and  O_33
REMARK    3  A    between atoms: O_33  and  C_34
REMARK    4  A    between atoms: C_34  and  C_35
REMARK    5  A    between atoms: C_35  and  C_36
REMARK                            x       y       z     vdW  Elec       q    Type
REMARK                         _______ _______ _______ _____ _____    ______ ____
ROOT
ATOM      1  C   UNL     1      21.421   0.319  52.421  0.00  0.00    +0.000 C 
ATOM      2  O   UNL     1      22.378   0.832  51.917  0.00  0.00    +0.000 OA
ATOM      3  N   UNL     1      20.142  -0.017  51.662  0.00  0.00    +0.000 N 
ATOM      4  C   UNL     1      18.627  -0.589  52.471  0.00  0.00    +0.000 C 
ATOM      5  C   UNL     1      17.585  -2.105  52.786  0.00  0.00    +0.000 C 
ATOM      6  C   UNL     1      15.892  -2.511  53.118  0.00  0.00    +0.000 C 
ATOM      7  C   UNL     1      14.806  -1.924  52.239  0.00  0.00    +0.000 C 
ATOM      8  C   UNL     1      15.304  -2.266  50.850  0.00  0.00    +0.000 C 
ATOM      9  C   UNL     1      14.364  -3.050  49.953  0.00  0.00    +0.000 C 
ATOM     10  C   UNL     1      13.119  -2.292  49.508  0.00  0.00    +0.000 C 
ATOM     11  N   UNL     1      13.449  -0.952  49.054  0.00  0.00    +0.000 N 
ATOM     12  C   UNL     1      13.808   0.079  49.878  0.00  0.00    +0.000 A 
ATOM     13  C   UNL     1      14.382   1.083  49.135  0.00  0.00    +0.000 A 
ATOM     14  C   UNL     1      14.063   0.756  47.764  0.00  0.00    +0.000 A 
ATOM     15  C   UNL     1      14.170   1.401  46.543  0.00  0.00    +0.000 A 
ATOM     16  C   UNL     1      13.711   0.792  45.349  0.00  0.00    +0.000 A 
ATOM     17  C   UNL     1      13.193  -0.496  45.376  0.00  0.00    +0.000 A 
ATOM     18  C   UNL     1      13.102  -1.193  46.573  0.00  0.00    +0.000 A 
ATOM     19  C   UNL     1      13.502  -0.531  47.749  0.00  0.00    +0.000 A 
ATOM     20  C   UNL     1      14.846   2.281  49.791  0.00  0.00    +0.000 A 
ATOM     21  C   UNL     1      14.107   3.396  49.721  0.00  0.00    +0.000 A 
ATOM     22  C   UNL     1      14.413   4.387  50.649  0.00  0.00    +0.000 A 
ATOM     23  N   UNL     1      15.478   4.380  51.439  0.00  0.00    +0.000 NA
ATOM     24  C   UNL     1      16.285   3.352  51.228  0.00  0.00    +0.000 A 
ATOM     25  N   UNL     1      15.967   2.233  50.540  0.00  0.00    +0.000 NA
ATOM     26  N   UNL     1      17.611   3.615  51.501  0.00  0.00    +0.000 N 
ATOM     27  C   UNL     1      18.607   3.132  50.675  0.00  0.00    +0.000 A 
ATOM     28  C   UNL     1      19.534   2.324  51.272  0.00  0.00    +0.000 A 
ATOM     29  C   UNL     1      19.951   1.171  50.613  0.00  0.00    +0.000 A 
ATOM     30  C   UNL     1      20.379   1.578  49.273  0.00  0.00    +0.000 A 
ATOM     31  C   UNL     1      19.585   2.549  48.579  0.00  0.00    +0.000 A 
ATOM     32  C   UNL     1      18.551   3.142  49.275  0.00  0.00    +0.000 A 
ATOM     33  F   UNL     1      17.550   3.753  48.605  0.00  0.00    +0.000 F 
ATOM     34  H   UNL     1      17.849   4.153  52.291  0.00  0.00    +0.000 HD
ENDROOT
BRANCH   1  36
ATOM     35  C   UNL     1      21.653  -0.837  54.948  0.00  0.00    +0.000 C 
ATOM     36  C   UNL     1      21.470   0.107  53.982  0.00  0.00    +0.000 C 
ENDBRANCH   1  36
BRANCH  30  37
ATOM     37  O   UNL     1      21.583   1.431  48.601  0.00  0.00    +0.000 OA
BRANCH  37  38
ATOM     38  C   UNL     1      22.291   2.530  48.055  0.00  0.00    +0.000 C 
BRANCH  38  39
ATOM     39  C   UNL     1      23.432   2.891  49.014  0.00  0.00    +0.000 C 
BRANCH  39  40
ATOM     40  C   UNL     1      23.208   4.240  49.651  0.00  0.00    +0.000 C 
ATOM     41  F   UNL     1      22.070   4.197  50.397  0.00  0.00    +0.000 F 
ENDBRANCH  39  40
ENDBRANCH  38  39
ENDBRANCH  37  38
ENDBRANCH  30  37
TORSDOF 5
ENDMDL
MODEL 8
REMARK VINA RESULT:    -6.625      1.945      3.092
REMARK INTER + INTRA:          -9.107
REMARK INTER:                  -8.398
REMARK INTRA:                  -0.709
REMARK UNBOUND:                -0.545
REMARK  Name = 
REMARK  5 active torsions:
REMARK  status: ('A' for Active; 'I' for Inactive)
REMARK    1  A    between atoms: C_2  and  C_3
REMARK    2  A    between atoms: C_32  and  O_33
REMARK    3  A    between atoms: O_33  and  C_34
REMARK    4  A    between atoms: C_34  and  C_35
REMARK    5  A    between atoms: C_35  and  C_36
REMARK                            x       y       z     vdW  Elec       q    Type
REMARK                         _______ _______ _______ _____ _____    ______ ____
ROOT
ATOM      1  C   UNL     1      24.498   5.832  50.501  0.00  0.00    +0.000 C 
ATOM      2  O   UNL     1      24.776   4.888  51.183  0.00  0.00    +0.000 OA
ATOM      3  N   UNL     1      23.084   6.145  50.023  0.00  0.00    +0.000 N 
ATOM      4  C   UNL     1      22.706   7.442  48.819  0.00  0.00    +0.000 C 
ATOM      5  C   UNL     1      22.008   9.165  48.653  0.00  0.00    +0.000 C 
ATOM      6  C   UNL     1      21.190  10.158  47.434  0.00  0.00    +0.000 C 
ATOM      7  C   UNL     1      19.998   9.584  46.693  0.00  0.00    +0.000 C 
ATOM      8  C   UNL     1      19.129   9.089  47.830  0.00  0.00    +0.000 C 
ATOM      9  C   UNL     1      17.706   9.614  47.890  0.00  0.00    +0.000 C 
ATOM     10  C   UNL     1      16.799   9.142  46.760  0.00  0.00    +0.000 C 
ATOM     11  N   UNL     1      16.932   7.713  46.535  0.00  0.00    +0.000 N 
ATOM     12  C   UNL     1      18.014   7.119  45.943  0.00  0.00    +0.000 A 
ATOM     13  C   UNL     1      17.989   5.768  46.193  0.00  0.00    +0.000 A 
ATOM     14  C   UNL     1      16.660   5.509  46.697  0.00  0.00    +0.000 A 
ATOM     15  C   UNL     1      15.911   4.378  46.974  0.00  0.00    +0.000 A 
ATOM     16  C   UNL     1      14.575   4.478  47.437  0.00  0.00    +0.000 A 
ATOM     17  C   UNL     1      14.010   5.724  47.676  0.00  0.00    +0.000 A 
ATOM     18  C   UNL     1      14.739   6.883  47.446  0.00  0.00    +0.000 A 
ATOM     19  C   UNL     1      16.036   6.747  46.920  0.00  0.00    +0.000 A 
ATOM     20  C   UNL     1      19.037   4.926  45.668  0.00  0.00    +0.000 A 
ATOM     21  C   UNL     1      18.797   4.177  44.584  0.00  0.00    +0.000 A 
ATOM     22  C   UNL     1      19.919   3.680  43.928  0.00  0.00    +0.000 A 
ATOM     23  N   UNL     1      21.156   3.733  44.401  0.00  0.00    +0.000 NA
ATOM     24  C   UNL     1      21.236   4.260  45.613  0.00  0.00    +0.000 A 
ATOM     25  N   UNL     1      20.266   4.978  46.222  0.00  0.00    +0.000 NA
ATOM     26  N   UNL     1      22.282   3.773  46.369  0.00  0.00    +0.000 N 
ATOM     27  C   UNL     1      22.111   3.506  47.713  0.00  0.00    +0.000 A 
ATOM     28  C   UNL     1      22.940   4.182  48.563  0.00  0.00    +0.000 A 
ATOM     29  C   UNL     1      22.415   4.725  49.732  0.00  0.00    +0.000 A 
ATOM     30  C   UNL     1      21.707   3.644  50.422  0.00  0.00    +0.000 A 
ATOM     31  C   UNL     1      20.916   2.747  49.633  0.00  0.00    +0.000 A 
ATOM     32  C   UNL     1      20.987   2.873  48.260  0.00  0.00    +0.000 A 
ATOM     33  F   UNL     1      20.014   2.351  47.483  0.00  0.00    +0.000 F 
ATOM     34  H   UNL     1      23.157   3.613  45.945  0.00  0.00    +0.000 HD
ENDROOT
BRANCH   1  36
ATOM     35  C   UNL     1      26.632   6.804  48.993  0.00  0.00    +0.000 C 
ATOM     36  C   UNL     1      25.699   6.710  49.981  0.00  0.00    +0.000 C 
ENDBRANCH   1  36
BRANCH  30  37
ATOM     37  O   UNL     1      21.854   3.103  51.691  0.00  0.00    +0.000 OA
BRANCH  37  38
ATOM     38  C   UNL     1      22.180   1.742  51.908  0.00  0.00    +0.000 C 
BRANCH  38  39
ATOM     39  C   UNL     1      23.691   1.573  51.709  0.00  0.00    +0.000 C 
BRANCH  39  40
ATOM     40  C   UNL     1      24.423   1.583  53.028  0.00  0.00    +0.000 C 
ATOM     41  F   UNL     1      24.435   2.851  53.522  0.00  0.00    +0.000 F 
ENDBRANCH  39  40
ENDBRANCH  38  39
ENDBRANCH  37  38
ENDBRANCH  30  37
TORSDOF 5
ENDMDL
MODEL 9
REMARK VINA RESULT:    -6.474      3.355      6.959
REMARK INTER + INTRA:          -8.911
REMARK INTER:                  -8.019
REMARK INTRA:                  -0.892
REMARK UNBOUND:                -0.545
REMARK  Name = 
REMARK  5 active torsions:
REMARK  status: ('A' for Active; 'I' for Inactive)
REMARK    1  A    between atoms: C_2  and  C_3
REMARK    2  A    between atoms: C_32  and  O_33
REMARK    3  A    between atoms: O_33  and  C_34
REMARK    4  A    between atoms: C_34  and  C_35
REMARK    5  A    between atoms: C_35  and  C_36
REMARK                            x       y       z     vdW  Elec       q    Type
REMARK                         _______ _______ _______ _____ _____    ______ ____
ROOT
ATOM      1  C   UNL     1      15.419   0.978  49.785  0.00  0.00    +0.000 C 
ATOM      2  O   UNL     1      14.369   1.519  49.591  0.00  0.00    +0.000 OA
ATOM      3  N   UNL     1      16.722   1.725  50.048  0.00  0.00    +0.000 N 
ATOM      4  C   UNL     1      18.337   0.912  50.122  0.00  0.00    +0.000 C 
ATOM      5  C   UNL     1      19.662   0.333  51.302  0.00  0.00    +0.000 C 
ATOM      6  C   UNL     1      21.409   0.033  51.298  0.00  0.00    +0.000 C 
ATOM      7  C   UNL     1      22.339   1.093  50.743  0.00  0.00    +0.000 C 
ATOM      8  C   UNL     1      21.887   2.331  51.488  0.00  0.00    +0.000 C 
ATOM      9  C   UNL     1      22.942   3.088  52.273  0.00  0.00    +0.000 C 
ATOM     10  C   UNL     1      24.004   3.776  51.425  0.00  0.00    +0.000 C 
ATOM     11  N   UNL     1      23.407   4.500  50.314  0.00  0.00    +0.000 N 
ATOM     12  C   UNL     1      22.872   3.908  49.202  0.00  0.00    +0.000 A 
ATOM     13  C   UNL     1      22.097   4.819  48.526  0.00  0.00    +0.000 A 
ATOM     14  C   UNL     1      22.442   6.098  49.101  0.00  0.00    +0.000 A 
ATOM     15  C   UNL     1      22.184   7.423  48.793  0.00  0.00    +0.000 A 
ATOM     16  C   UNL     1      22.727   8.477  49.570  0.00  0.00    +0.000 A 
ATOM     17  C   UNL     1      23.487   8.193  50.696  0.00  0.00    +0.000 A 
ATOM     18  C   UNL     1      23.739   6.878  51.063  0.00  0.00    +0.000 A 
ATOM     19  C   UNL     1      23.244   5.859  50.229  0.00  0.00    +0.000 A 
ATOM     20  C   UNL     1      21.422   4.421  47.314  0.00  0.00    +0.000 A 
ATOM     21  C   UNL     1      21.926   4.792  46.130  0.00  0.00    +0.000 A 
ATOM     22  C   UNL     1      21.453   4.093  45.022  0.00  0.00    +0.000 A 
ATOM     23  N   UNL     1      20.429   3.253  45.040  0.00  0.00    +0.000 NA
ATOM     24  C   UNL     1      19.834   3.171  46.220  0.00  0.00    +0.000 A 
ATOM     25  N   UNL     1      20.349   3.606  47.391  0.00  0.00    +0.000 NA
ATOM     26  N   UNL     1      18.488   2.875  46.151  0.00  0.00    +0.000 N 
ATOM     27  C   UNL     1      17.588   3.501  46.991  0.00  0.00    +0.000 A 
ATOM     28  C   UNL     1      16.850   2.676  47.793  0.00  0.00    +0.000 A 
ATOM     29  C   UNL     1      16.653   3.027  49.125  0.00  0.00    +0.000 A 
ATOM     30  C   UNL     1      16.123   4.392  49.132  0.00  0.00    +0.000 A 
ATOM     31  C   UNL     1      16.696   5.340  48.221  0.00  0.00    +0.000 A 
ATOM     32  C   UNL     1      17.609   4.868  47.300  0.00  0.00    +0.000 A 
ATOM     33  F   UNL     1      18.457   5.724  46.690  0.00  0.00    +0.000 F 
ATOM     34  H   UNL     1      18.167   2.213  45.496  0.00  0.00    +0.000 HD
ENDROOT
BRANCH   1  36
ATOM     35  C   UNL     1      15.653  -1.592  48.730  0.00  0.00    +0.000 C 
ATOM     36  C   UNL     1      15.448  -0.590  49.630  0.00  0.00    +0.000 C 
ENDBRANCH   1  36
BRANCH  30  37
ATOM     37  O   UNL     1      14.956   4.930  49.652  0.00  0.00    +0.000 OA
BRANCH  37  38
ATOM     38  C   UNL     1      13.933   5.469  48.834  0.00  0.00    +0.000 C 
BRANCH  38  39
ATOM     39  C   UNL     1      13.135   4.305  48.234  0.00  0.00    +0.000 C 
BRANCH  39  40
ATOM     40  C   UNL     1      13.274   4.261  46.733  0.00  0.00    +0.000 C 
ATOM     41  F   UNL     1      14.063   5.293  46.327  0.00  0.00    +0.000 F 
ENDBRANCH  39  40
ENDBRANCH  38  39
ENDBRANCH  37  38
ENDBRANCH  30  37
TORSDOF 5
ENDMDL
