MODEL 1
REMARK VINA RESULT:    -9.895      0.000      0.000
REMARK INTER + INTRA:         -13.430
REMARK INTER:                 -12.209
REMARK INTRA:                  -1.221
REMARK UNBOUND:                -1.221
REMARK  Name = 
REMARK  5 active torsions:
REMARK  status: ('A' for Active; 'I' for Inactive)
REMARK    1  A    between atoms: C_1  and  O_2
REMARK    2  A    between atoms: O_2  and  C_3
REMARK    3  A    between atoms: C_5  and  O_6
REMARK    4  A    between atoms: O_6  and  C_7
REMARK    5  A    between atoms: N_15  and  C_16
REMARK                            x       y       z     vdW  Elec       q    Type
REMARK                         _______ _______ _______ _____ _____    ______ ____
ROOT
ATOM      1  C   UNL     1      19.634  -0.043  52.482  0.00  0.00    +0.000 A 
ATOM      2  C   UNL     1      20.562   0.522  51.616  0.00  0.00    +0.000 A 
ATOM      3  C   UNL     1      21.924   0.504  51.940  0.00  0.00    +0.000 A 
ATOM      4  C   UNL     1      22.370  -0.204  53.106  0.00  0.00    +0.000 A 
ATOM      5  C   UNL     1      23.704  -0.408  53.528  0.00  0.00    +0.000 A 
ATOM      6  N   UNL     1      24.788  -0.000  52.710  0.00  0.00    +0.000 N 
ATOM      7  N   UNL     1      24.013  -1.057  54.672  0.00  0.00    +0.000 NA
ATOM      8  C   UNL     1      23.002  -1.505  55.410  0.00  0.00    +0.000 A 
ATOM      9  N   UNL     1      21.711  -1.381  55.112  0.00  0.00    +0.000 NA
ATOM     10  C   UNL     1      21.410  -0.751  53.974  0.00  0.00    +0.000 A 
ATOM     11  C   UNL     1      20.070  -0.640  53.662  0.00  0.00    +0.000 A 
ATOM     12  H   UNL     1      24.669  -0.054  51.734  0.00  0.00    +0.000 HD
ENDROOT
BRANCH   6  13
ATOM     13  C   UNL     1      26.030   0.476  53.191  0.00  0.00    +0.000 A 
ATOM     14  C   UNL     1      26.203   1.807  53.604  0.00  0.00    +0.000 A 
ATOM     15  C   UNL     1      27.447   2.269  54.024  0.00  0.00    +0.000 A 
ATOM     16  C   UNL     1      28.530   1.401  54.019  0.00  0.00    +0.000 A 
ATOM     17  F   UNL     1      29.724   1.866  54.425  0.00  0.00    +0.000 F 
ATOM     18  C   UNL     1      28.387   0.085  53.596  0.00  0.00    +0.000 A 
ATOM     19 CL   UNL     1      29.737  -0.985  53.582  0.00  0.00    +0.000 Cl
ATOM     20  C   UNL     1      27.140  -0.377  53.171  0.00  0.00    +0.000 A 
ENDBRANCH   6  13
BRANCH   1  22
ATOM     21  C   UNL     1      17.555  -1.122  52.825  0.00  0.00    +0.000 C 
ATOM     22  O   UNL     1      18.278  -0.007  52.318  0.00  0.00    +0.000 OA
ENDBRANCH   1  22
BRANCH   3  23
ATOM     23  O   UNL     1      22.891   1.186  51.223  0.00  0.00    +0.000 OA
BRANCH  23  24
ATOM     24  C   UNL     1      22.588   2.483  50.671  0.00  0.00    +0.000 C 
ATOM     25  C   UNL     1      23.739   2.907  49.746  0.00  0.00    +0.000 C 
ATOM     26  C   UNL     1      24.984   3.362  50.506  0.00  0.00    +0.000 C 
ATOM     27  N   UNL     1      24.677   4.401  51.484  0.00  0.00    +0.000 N 
ATOM     28  C   UNL     1      23.674   3.957  52.446  0.00  0.00    +0.000 C 
ATOM     29  C   UNL     1      22.378   3.551  51.755  0.00  0.00    +0.000 C 
ATOM     30  H   UNL     1      24.323   5.223  50.994  0.00  0.00    +0.000 HD
ATOM     31  H   UNL     1      25.531   4.621  51.994  0.00  0.00    +0.000 HD
ENDBRANCH  23  24
ENDBRANCH   3  23
TORSDOF 4
ENDMDL
MODEL 2
REMARK VINA RESULT:    -9.068      1.741      2.168
REMARK INTER + INTRA:         -12.409
REMARK INTER:                 -11.491
REMARK INTRA:                  -0.918
REMARK UNBOUND:                -1.221
REMARK  Name = 
REMARK  5 active torsions:
REMARK  status: ('A' for Active; 'I' for Inactive)
REMARK    1  A    between atoms: C_1  and  O_2
REMARK    2  A    between atoms: O_2  and  C_3
REMARK    3  A    between atoms: C_5  and  O_6
REMARK    4  A    between atoms: O_6  and  C_7
REMARK    5  A    between atoms: N_15  and  C_16
REMARK                            x       y       z     vdW  Elec       q    Type
REMARK                         _______ _______ _______ _____ _____    ______ ____
ROOT
ATOM      1  C   UNL     1      20.335   2.662  52.335  0.00  0.00    +0.000 A 
ATOM      2  C   UNL     1      21.435   3.199  51.679  0.00  0.00    +0.000 A 
ATOM      3  C   UNL     1      22.704   2.635  51.864  0.00  0.00    +0.000 A 
ATOM      4  C   UNL     1      22.844   1.432  52.632  0.00  0.00    +0.000 A 
ATOM      5  C   UNL     1      24.022   0.677  52.838  0.00  0.00    +0.000 A 
ATOM      6  N   UNL     1      25.219   1.010  52.153  0.00  0.00    +0.000 N 
ATOM      7  N   UNL     1      24.053  -0.425  53.619  0.00  0.00    +0.000 NA
ATOM      8  C   UNL     1      22.916  -0.785  54.208  0.00  0.00    +0.000 A 
ATOM      9  N   UNL     1      21.747  -0.161  54.083  0.00  0.00    +0.000 NA
ATOM     10  C   UNL     1      21.718   0.919  53.299  0.00  0.00    +0.000 A 
ATOM     11  C   UNL     1      20.500   1.553  53.160  0.00  0.00    +0.000 A 
ATOM     12  H   UNL     1      25.137   1.377  51.244  0.00  0.00    +0.000 HD
ENDROOT
BRANCH   6  13
ATOM     13  C   UNL     1      26.521   0.852  52.680  0.00  0.00    +0.000 A 
ATOM     14  C   UNL     1      27.288   1.950  53.104  0.00  0.00    +0.000 A 
ATOM     15  C   UNL     1      28.588   1.778  53.569  0.00  0.00    +0.000 A 
ATOM     16  C   UNL     1      29.134   0.501  53.598  0.00  0.00    +0.000 A 
ATOM     17  F   UNL     1      30.393   0.355  54.048  0.00  0.00    +0.000 F 
ATOM     18  C   UNL     1      28.403  -0.597  53.164  0.00  0.00    +0.000 A 
ATOM     19 CL   UNL     1      29.090  -2.176  53.193  0.00  0.00    +0.000 Cl
ATOM     20  C   UNL     1      27.099  -0.423  52.694  0.00  0.00    +0.000 A 
ENDBRANCH   6  13
BRANCH   1  22
ATOM     21  C   UNL     1      18.691   3.841  51.104  0.00  0.00    +0.000 C 
ATOM     22  O   UNL     1      19.070   3.178  52.305  0.00  0.00    +0.000 OA
ENDBRANCH   1  22
BRANCH   3  23
ATOM     23  O   UNL     1      23.871   3.204  51.386  0.00  0.00    +0.000 OA
BRANCH  23  24
ATOM     24  C   UNL     1      23.926   3.687  50.028  0.00  0.00    +0.000 C 
ATOM     25  C   UNL     1      25.243   3.218  49.391  0.00  0.00    +0.000 C 
ATOM     26  C   UNL     1      26.458   4.009  49.873  0.00  0.00    +0.000 C 
ATOM     27  N   UNL     1      26.271   5.448  49.713  0.00  0.00    +0.000 N 
ATOM     28  C   UNL     1      25.089   5.920  50.425  0.00  0.00    +0.000 C 
ATOM     29  C   UNL     1      23.827   5.217  49.941  0.00  0.00    +0.000 C 
ATOM     30  H   UNL     1      26.165   5.659  48.720  0.00  0.00    +0.000 HD
ATOM     31  H   UNL     1      27.086   5.920  50.102  0.00  0.00    +0.000 HD
ENDBRANCH  23  24
ENDBRANCH   3  23
TORSDOF 4
ENDMDL
MODEL 3
REMARK VINA RESULT:    -8.924      1.903      4.684
REMARK INTER + INTRA:         -12.231
REMARK INTER:                 -11.432
REMARK INTRA:                  -0.799
REMARK UNBOUND:                -1.221
REMARK  Name = 
REMARK  5 active torsions:
REMARK  status: ('A' for Active; 'I' for Inactive)
REMARK    1  A    between atoms: C_1  and  O_2
REMARK    2  A    between atoms: O_2  and  C_3
REMARK    3  A    between atoms: C_5  and  O_6
REMARK    4  A    between atoms: O_6  and  C_7
REMARK    5  A    between atoms: N_15  and  C_16
REMARK                            x       y       z     vdW  Elec       q    Type
REMARK                         _______ _______ _______ _____ _____    ______ ____
ROOT
ATOM      1  C   UNL     1      21.859   3.388  50.121  0.00  0.00    +0.000 A 
ATOM      2  C   UNL     1      21.909   2.685  51.318  0.00  0.00    +0.000 A 
ATOM      3  C   UNL     1      23.146   2.308  51.857  0.00  0.00    +0.000 A 
ATOM      4  C   UNL     1      24.360   2.754  51.235  0.00  0.00    +0.000 A 
ATOM      5  C   UNL     1      25.682   2.555  51.694  0.00  0.00    +0.000 A 
ATOM      6  N   UNL     1      25.924   1.956  52.957  0.00  0.00    +0.000 N 
ATOM      7  N   UNL     1      26.763   2.983  51.006  0.00  0.00    +0.000 NA
ATOM      8  C   UNL     1      26.542   3.609  49.853  0.00  0.00    +0.000 A 
ATOM      9  N   UNL     1      25.346   3.862  49.326  0.00  0.00    +0.000 NA
ATOM     10  C   UNL     1      24.281   3.449  50.017  0.00  0.00    +0.000 A 
ATOM     11  C   UNL     1      23.043   3.729  49.473  0.00  0.00    +0.000 A 
ATOM     12  H   UNL     1      25.277   2.135  53.678  0.00  0.00    +0.000 HD
ENDROOT
BRANCH   6  13
ATOM     13  C   UNL     1      27.025   1.123  53.260  0.00  0.00    +0.000 A 
ATOM     14  C   UNL     1      28.219   1.637  53.793  0.00  0.00    +0.000 A 
ATOM     15  C   UNL     1      29.310   0.807  54.033  0.00  0.00    +0.000 A 
ATOM     16  C   UNL     1      29.215  -0.544  53.726  0.00  0.00    +0.000 A 
ATOM     17  F   UNL     1      30.280  -1.329  53.962  0.00  0.00    +0.000 F 
ATOM     18  C   UNL     1      28.052  -1.070  53.179  0.00  0.00    +0.000 A 
ATOM     19 CL   UNL     1      27.944  -2.746  52.791  0.00  0.00    +0.000 Cl
ATOM     20  C   UNL     1      26.959  -0.237  52.934  0.00  0.00    +0.000 A 
ENDBRANCH   6  13
BRANCH   1  22
ATOM     21  C   UNL     1      19.494   3.307  50.049  0.00  0.00    +0.000 C 
ATOM     22  O   UNL     1      20.715   3.729  49.455  0.00  0.00    +0.000 OA
ENDBRANCH   1  22
BRANCH   3  23
ATOM     23  O   UNL     1      23.282   1.468  52.948  0.00  0.00    +0.000 OA
BRANCH  23  24
ATOM     24  C   UNL     1      23.094   0.048  52.783  0.00  0.00    +0.000 C 
ATOM     25  C   UNL     1      21.628  -0.216  52.407  0.00  0.00    +0.000 C 
ATOM     26  C   UNL     1      20.671  -0.082  53.591  0.00  0.00    +0.000 C 
ATOM     27  N   UNL     1      21.087  -0.904  54.725  0.00  0.00    +0.000 N 
ATOM     28  C   UNL     1      22.435  -0.567  55.168  0.00  0.00    +0.000 C 
ATOM     29  C   UNL     1      23.453  -0.746  54.048  0.00  0.00    +0.000 C 
ATOM     30  H   UNL     1      21.066  -1.885  54.447  0.00  0.00    +0.000 HD
ATOM     31  H   UNL     1      20.445  -0.729  55.497  0.00  0.00    +0.000 HD
ENDBRANCH  23  24
ENDBRANCH   3  23
TORSDOF 4
ENDMDL
MODEL 4
REMARK VINA RESULT:    -8.615      3.982      7.401
REMARK INTER + INTRA:         -11.851
REMARK INTER:                 -10.718
REMARK INTRA:                  -1.133
REMARK UNBOUND:                -1.221
REMARK  Name = 
REMARK  5 active torsions:
REMARK  status: ('A' for Active; 'I' for Inactive)
REMARK    1  A    between atoms: C_1  and  O_2
REMARK    2  A    between atoms: O_2  and  C_3
REMARK    3  A    between atoms: C_5  and  O_6
REMARK    4  A    between atoms: O_6  and  C_7
REMARK    5  A    between atoms: N_15  and  C_16
REMARK                            x       y       z     vdW  Elec       q    Type
REMARK                         _______ _______ _______ _____ _____    ______ ____
ROOT
ATOM      1  C   UNL     1      26.859  -0.007  53.508  0.00  0.00    +0.000 A 
ATOM      2  C   UNL     1      25.539  -0.440  53.484  0.00  0.00    +0.000 A 
ATOM      3  C   UNL     1      24.588   0.259  52.730  0.00  0.00    +0.000 A 
ATOM      4  C   UNL     1      25.003   1.345  51.888  0.00  0.00    +0.000 A 
ATOM      5  C   UNL     1      24.202   2.090  50.992  0.00  0.00    +0.000 A 
ATOM      6  N   UNL     1      22.855   1.718  50.751  0.00  0.00    +0.000 N 
ATOM      7  N   UNL     1      24.686   3.127  50.275  0.00  0.00    +0.000 NA
ATOM      8  C   UNL     1      25.969   3.437  50.443  0.00  0.00    +0.000 A 
ATOM      9  N   UNL     1      26.819   2.805  51.248  0.00  0.00    +0.000 NA
ATOM     10  C   UNL     1      26.340   1.773  51.944  0.00  0.00    +0.000 A 
ATOM     11  C   UNL     1      27.230   1.110  52.765  0.00  0.00    +0.000 A 
ATOM     12  H   UNL     1      22.635   0.759  50.774  0.00  0.00    +0.000 HD
ENDROOT
BRANCH   6  13
ATOM     13  C   UNL     1      21.803   2.623  50.476  0.00  0.00    +0.000 A 
ATOM     14  C   UNL     1      21.372   3.567  51.423  0.00  0.00    +0.000 A 
ATOM     15  C   UNL     1      20.300   4.412  51.153  0.00  0.00    +0.000 A 
ATOM     16  C   UNL     1      19.642   4.305  49.934  0.00  0.00    +0.000 A 
ATOM     17  F   UNL     1      18.608   5.128  49.692  0.00  0.00    +0.000 F 
ATOM     18  C   UNL     1      20.038   3.366  48.991  0.00  0.00    +0.000 A 
ATOM     19 CL   UNL     1      19.212   3.232  47.485  0.00  0.00    +0.000 Cl
ATOM     20  C   UNL     1      21.112   2.515  49.264  0.00  0.00    +0.000 A 
ENDBRANCH   6  13
BRANCH   1  22
ATOM     21  C   UNL     1      28.918   0.324  54.630  0.00  0.00    +0.000 C 
ATOM     22  O   UNL     1      27.853  -0.550  54.273  0.00  0.00    +0.000 OA
ENDBRANCH   1  22
BRANCH   3  23
ATOM     23  O   UNL     1      23.230  -0.000  52.781  0.00  0.00    +0.000 OA
BRANCH  23  24
ATOM     24  C   UNL     1      22.489   0.310  53.979  0.00  0.00    +0.000 C 
ATOM     25  C   UNL     1      22.375  -0.961  54.833  0.00  0.00    +0.000 C 
ATOM     26  C   UNL     1      21.354  -1.960  54.289  0.00  0.00    +0.000 C 
ATOM     27  N   UNL     1      20.048  -1.343  54.074  0.00  0.00    +0.000 N 
ATOM     28  C   UNL     1      20.132  -0.210  53.160  0.00  0.00    +0.000 C 
ATOM     29  C   UNL     1      21.086   0.859  53.680  0.00  0.00    +0.000 C 
ATOM     30  H   UNL     1      19.685  -1.019  54.970  0.00  0.00    +0.000 HD
ATOM     31  H   UNL     1      19.431  -2.040  53.661  0.00  0.00    +0.000 HD
ENDBRANCH  23  24
ENDBRANCH   3  23
TORSDOF 4
ENDMDL
MODEL 5
REMARK VINA RESULT:    -8.607      3.622      5.410
REMARK INTER + INTRA:         -11.841
REMARK INTER:                 -10.768
REMARK INTRA:                  -1.072
REMARK UNBOUND:                -1.221
REMARK  Name = 
REMARK  5 active torsions:
REMARK  status: ('A' for Active; 'I' for Inactive)
REMARK    1  A    between atoms: C_1  and  O_2
REMARK    2  A    between atoms: O_2  and  C_3
REMARK    3  A    between atoms: C_5  and  O_6
REMARK    4  A    between atoms: O_6  and  C_7
REMARK    5  A    between atoms: N_15  and  C_16
REMARK                            x       y       z     vdW  Elec       q    Type
REMARK                         _______ _______ _______ _____ _____    ______ ____
ROOT
ATOM      1  C   UNL     1      23.365  -0.121  53.364  0.00  0.00    +0.000 A 
ATOM      2  C   UNL     1      22.785   0.564  52.304  0.00  0.00    +0.000 A 
ATOM      3  C   UNL     1      23.534   1.506  51.586  0.00  0.00    +0.000 A 
ATOM      4  C   UNL     1      24.931   1.672  51.870  0.00  0.00    +0.000 A 
ATOM      5  C   UNL     1      25.854   2.496  51.185  0.00  0.00    +0.000 A 
ATOM      6  N   UNL     1      25.468   3.183  50.006  0.00  0.00    +0.000 N 
ATOM      7  N   UNL     1      27.145   2.611  51.564  0.00  0.00    +0.000 NA
ATOM      8  C   UNL     1      27.533   1.914  52.628  0.00  0.00    +0.000 A 
ATOM      9  N   UNL     1      26.760   1.101  53.345  0.00  0.00    +0.000 NA
ATOM     10  C   UNL     1      25.488   0.979  52.959  0.00  0.00    +0.000 A 
ATOM     11  C   UNL     1      24.695   0.122  53.695  0.00  0.00    +0.000 A 
ATOM     12  H   UNL     1      24.815   2.743  49.415  0.00  0.00    +0.000 HD
ENDROOT
BRANCH   6  13
ATOM     13  C   UNL     1      25.953   4.452  49.614  0.00  0.00    +0.000 A 
ATOM     14  C   UNL     1      27.119   4.594  48.844  0.00  0.00    +0.000 A 
ATOM     15  C   UNL     1      27.609   5.854  48.515  0.00  0.00    +0.000 A 
ATOM     16  C   UNL     1      26.939   6.983  48.970  0.00  0.00    +0.000 A 
ATOM     17  F   UNL     1      27.429   8.191  48.644  0.00  0.00    +0.000 F 
ATOM     18  C   UNL     1      25.796   6.866  49.750  0.00  0.00    +0.000 A 
ATOM     19 CL   UNL     1      24.975   8.270  50.319  0.00  0.00    +0.000 Cl
ATOM     20  C   UNL     1      25.307   5.601  50.083  0.00  0.00    +0.000 A 
ENDBRANCH   6  13
BRANCH   1  22
ATOM     21  C   UNL     1      21.418  -0.593  54.626  0.00  0.00    +0.000 C 
ATOM     22  O   UNL     1      22.712  -0.992  54.191  0.00  0.00    +0.000 OA
ENDBRANCH   1  22
BRANCH   3  23
ATOM     23  O   UNL     1      22.992   2.347  50.632  0.00  0.00    +0.000 OA
BRANCH  23  24
ATOM     24  C   UNL     1      21.696   2.052  50.073  0.00  0.00    +0.000 C 
ATOM     25  C   UNL     1      21.890   1.386  48.702  0.00  0.00    +0.000 C 
ATOM     26  C   UNL     1      22.296   2.372  47.608  0.00  0.00    +0.000 C 
ATOM     27  N   UNL     1      21.377   3.504  47.525  0.00  0.00    +0.000 N 
ATOM     28  C   UNL     1      21.288   4.219  48.793  0.00  0.00    +0.000 C 
ATOM     29  C   UNL     1      20.820   3.304  49.918  0.00  0.00    +0.000 C 
ATOM     30  H   UNL     1      20.451   3.160  47.273  0.00  0.00    +0.000 HD
ATOM     31  H   UNL     1      21.731   4.150  46.820  0.00  0.00    +0.000 HD
ENDBRANCH  23  24
ENDBRANCH   3  23
TORSDOF 4
ENDMDL
MODEL 6
REMARK VINA RESULT:    -8.360      3.436      5.171
REMARK INTER + INTRA:         -11.535
REMARK INTER:                 -10.589
REMARK INTRA:                  -0.946
REMARK UNBOUND:                -1.221
REMARK  Name = 
REMARK  5 active torsions:
REMARK  status: ('A' for Active; 'I' for Inactive)
REMARK    1  A    between atoms: C_1  and  O_2
REMARK    2  A    between atoms: O_2  and  C_3
REMARK    3  A    between atoms: C_5  and  O_6
REMARK    4  A    between atoms: O_6  and  C_7
REMARK    5  A    between atoms: N_15  and  C_16
REMARK                            x       y       z     vdW  Elec       q    Type
REMARK                         _______ _______ _______ _____ _____    ______ ____
ROOT
ATOM      1  C   UNL     1      22.972   0.040  53.140  0.00  0.00    +0.000 A 
ATOM      2  C   UNL     1      22.518   0.693  52.002  0.00  0.00    +0.000 A 
ATOM      3  C   UNL     1      23.362   1.578  51.319  0.00  0.00    +0.000 A 
ATOM      4  C   UNL     1      24.732   1.713  51.725  0.00  0.00    +0.000 A 
ATOM      5  C   UNL     1      25.742   2.477  51.096  0.00  0.00    +0.000 A 
ATOM      6  N   UNL     1      25.492   3.121  49.857  0.00  0.00    +0.000 N 
ATOM      7  N   UNL     1      26.997   2.570  51.590  0.00  0.00    +0.000 NA
ATOM      8  C   UNL     1      27.259   1.910  52.714  0.00  0.00    +0.000 A 
ATOM      9  N   UNL     1      26.395   1.155  53.389  0.00  0.00    +0.000 NA
ATOM     10  C   UNL     1      25.161   1.055  52.890  0.00  0.00    +0.000 A 
ATOM     11  C   UNL     1      24.273   0.257  53.585  0.00  0.00    +0.000 A 
ATOM     12  H   UNL     1      24.882   2.675  49.227  0.00  0.00    +0.000 HD
ENDROOT
BRANCH   6  13
ATOM     13  C   UNL     1      26.056   4.355  49.460  0.00  0.00    +0.000 A 
ATOM     14  C   UNL     1      25.323   5.552  49.502  0.00  0.00    +0.000 A 
ATOM     15  C   UNL     1      25.878   6.747  49.055  0.00  0.00    +0.000 A 
ATOM     16  C   UNL     1      27.172   6.746  48.549  0.00  0.00    +0.000 A 
ATOM     17  F   UNL     1      27.691   7.909  48.120  0.00  0.00    +0.000 F 
ATOM     18  C   UNL     1      27.908   5.571  48.479  0.00  0.00    +0.000 A 
ATOM     19 CL   UNL     1      29.509   5.574  47.841  0.00  0.00    +0.000 Cl
ATOM     20  C   UNL     1      27.349   4.371  48.924  0.00  0.00    +0.000 A 
ENDBRANCH   6  13
BRANCH   1  22
ATOM     21  C   UNL     1      21.133  -0.149  54.620  0.00  0.00    +0.000 C 
ATOM     22  O   UNL     1      22.216  -0.772  53.938  0.00  0.00    +0.000 OA
ENDBRANCH   1  22
BRANCH   3  23
ATOM     23  O   UNL     1      22.942   2.391  50.282  0.00  0.00    +0.000 OA
BRANCH  23  24
ATOM     24  C   UNL     1      22.097   1.849  49.247  0.00  0.00    +0.000 C 
ATOM     25  C   UNL     1      22.613   2.334  47.883  0.00  0.00    +0.000 C 
ATOM     26  C   UNL     1      22.269   3.795  47.597  0.00  0.00    +0.000 C 
ATOM     27  N   UNL     1      20.842   4.060  47.751  0.00  0.00    +0.000 N 
ATOM     28  C   UNL     1      20.372   3.719  49.089  0.00  0.00    +0.000 C 
ATOM     29  C   UNL     1      20.624   2.252  49.413  0.00  0.00    +0.000 C 
ATOM     30  H   UNL     1      20.327   3.503  47.069  0.00  0.00    +0.000 HD
ATOM     31  H   UNL     1      20.685   5.056  47.603  0.00  0.00    +0.000 HD
ENDBRANCH  23  24
ENDBRANCH   3  23
TORSDOF 4
ENDMDL
MODEL 7
REMARK VINA RESULT:    -8.229      4.197      6.770
REMARK INTER + INTRA:         -11.375
REMARK INTER:                 -10.175
REMARK INTRA:                  -1.199
REMARK UNBOUND:                -1.221
REMARK  Name = 
REMARK  5 active torsions:
REMARK  status: ('A' for Active; 'I' for Inactive)
REMARK    1  A    between atoms: C_1  and  O_2
REMARK    2  A    between atoms: O_2  and  C_3
REMARK    3  A    between atoms: C_5  and  O_6
REMARK    4  A    between atoms: O_6  and  C_7
REMARK    5  A    between atoms: N_15  and  C_16
REMARK                            x       y       z     vdW  Elec       q    Type
REMARK                         _______ _______ _______ _____ _____    ______ ____
ROOT
ATOM      1  C   UNL     1      27.814   1.156  53.078  0.00  0.00    +0.000 A 
ATOM      2  C   UNL     1      27.238   2.215  52.387  0.00  0.00    +0.000 A 
ATOM      3  C   UNL     1      25.854   2.239  52.170  0.00  0.00    +0.000 A 
ATOM      4  C   UNL     1      25.022   1.235  52.767  0.00  0.00    +0.000 A 
ATOM      5  C   UNL     1      23.610   1.161  52.737  0.00  0.00    +0.000 A 
ATOM      6  N   UNL     1      22.846   2.216  52.174  0.00  0.00    +0.000 N 
ATOM      7  N   UNL     1      22.922   0.143  53.300  0.00  0.00    +0.000 NA
ATOM      8  C   UNL     1      23.630  -0.815  53.893  0.00  0.00    +0.000 A 
ATOM      9  N   UNL     1      24.956  -0.849  53.992  0.00  0.00    +0.000 NA
ATOM     10  C   UNL     1      25.630   0.166  53.447  0.00  0.00    +0.000 A 
ATOM     11  C   UNL     1      27.006   0.134  53.567  0.00  0.00    +0.000 A 
ATOM     12  H   UNL     1      23.193   3.132  52.269  0.00  0.00    +0.000 HD
ENDROOT
BRANCH   6  13
ATOM     13  C   UNL     1      21.621   2.049  51.487  0.00  0.00    +0.000 A 
ATOM     14  C   UNL     1      21.491   1.157  50.410  0.00  0.00    +0.000 A 
ATOM     15  C   UNL     1      20.292   1.047  49.713  0.00  0.00    +0.000 A 
ATOM     16  C   UNL     1      19.216   1.844  50.085  0.00  0.00    +0.000 A 
ATOM     17  F   UNL     1      18.067   1.726  49.398  0.00  0.00    +0.000 F 
ATOM     18  C   UNL     1      19.328   2.748  51.133  0.00  0.00    +0.000 A 
ATOM     19 CL   UNL     1      17.994   3.741  51.582  0.00  0.00    +0.000 Cl
ATOM     20  C   UNL     1      20.533   2.860  51.830  0.00  0.00    +0.000 A 
ENDBRANCH   6  13
BRANCH   1  22
ATOM     21  C   UNL     1      29.569  -0.341  53.609  0.00  0.00    +0.000 C 
ATOM     22  O   UNL     1      29.155   0.978  53.272  0.00  0.00    +0.000 OA
ENDBRANCH   1  22
BRANCH   3  23
ATOM     23  O   UNL     1      25.223   3.161  51.355  0.00  0.00    +0.000 OA
BRANCH  23  24
ATOM     24  C   UNL     1      25.489   3.160  49.937  0.00  0.00    +0.000 C 
ATOM     25  C   UNL     1      26.411   4.343  49.607  0.00  0.00    +0.000 C 
ATOM     26  C   UNL     1      25.687   5.688  49.615  0.00  0.00    +0.000 C 
ATOM     27  N   UNL     1      24.506   5.678  48.756  0.00  0.00    +0.000 N 
ATOM     28  C   UNL     1      23.565   4.634  49.148  0.00  0.00    +0.000 C 
ATOM     29  C   UNL     1      24.208   3.254  49.096  0.00  0.00    +0.000 C 
ATOM     30  H   UNL     1      24.799   5.514  47.793  0.00  0.00    +0.000 HD
ATOM     31  H   UNL     1      24.038   6.578  48.848  0.00  0.00    +0.000 HD
ENDBRANCH  23  24
ENDBRANCH   3  23
TORSDOF 4
ENDMDL
MODEL 8
REMARK VINA RESULT:    -8.065      3.874      7.469
REMARK INTER + INTRA:         -11.171
REMARK INTER:                 -10.198
REMARK INTRA:                  -0.974
REMARK UNBOUND:                -1.221
REMARK  Name = 
REMARK  5 active torsions:
REMARK  status: ('A' for Active; 'I' for Inactive)
REMARK    1  A    between atoms: C_1  and  O_2
REMARK    2  A    between atoms: O_2  and  C_3
REMARK    3  A    between atoms: C_5  and  O_6
REMARK    4  A    between atoms: O_6  and  C_7
REMARK    5  A    between atoms: N_15  and  C_16
REMARK                            x       y       z     vdW  Elec       q    Type
REMARK                         _______ _______ _______ _____ _____    ______ ____
ROOT
ATOM      1  C   UNL     1      26.619   4.995  49.030  0.00  0.00    +0.000 A 
ATOM      2  C   UNL     1      26.755   3.724  49.573  0.00  0.00    +0.000 A 
ATOM      3  C   UNL     1      25.623   3.024  50.009  0.00  0.00    +0.000 A 
ATOM      4  C   UNL     1      24.316   3.570  49.781  0.00  0.00    +0.000 A 
ATOM      5  C   UNL     1      23.071   2.962  50.062  0.00  0.00    +0.000 A 
ATOM      6  N   UNL     1      23.011   1.619  50.515  0.00  0.00    +0.000 N 
ATOM      7  N   UNL     1      21.892   3.585  49.847  0.00  0.00    +0.000 NA
ATOM      8  C   UNL     1      21.937   4.821  49.355  0.00  0.00    +0.000 A 
ATOM      9  N   UNL     1      23.045   5.490  49.045  0.00  0.00    +0.000 NA
ATOM     10  C   UNL     1      24.206   4.865  49.246  0.00  0.00    +0.000 A 
ATOM     11  C   UNL     1      25.351   5.558  48.906  0.00  0.00    +0.000 A 
ATOM     12  H   UNL     1      23.691   0.993  50.175  0.00  0.00    +0.000 HD
ENDROOT
BRANCH   6  13
ATOM     13  C   UNL     1      22.048   1.112  51.417  0.00  0.00    +0.000 A 
ATOM     14  C   UNL     1      22.346   0.886  52.770  0.00  0.00    +0.000 A 
ATOM     15  C   UNL     1      21.400   0.336  53.629  0.00  0.00    +0.000 A 
ATOM     16  C   UNL     1      20.149  -0.006  53.131  0.00  0.00    +0.000 A 
ATOM     17  F   UNL     1      19.249  -0.539  53.975  0.00  0.00    +0.000 F 
ATOM     18  C   UNL     1      19.839   0.189  51.791  0.00  0.00    +0.000 A 
ATOM     19 CL   UNL     1      18.289  -0.246  51.177  0.00  0.00    +0.000 Cl
ATOM     20  C   UNL     1      20.790   0.738  50.929  0.00  0.00    +0.000 A 
ENDBRANCH   6  13
BRANCH   1  22
ATOM     21  C   UNL     1      27.308   7.148  48.324  0.00  0.00    +0.000 C 
ATOM     22  O   UNL     1      27.652   5.808  48.655  0.00  0.00    +0.000 OA
ENDBRANCH   1  22
BRANCH   3  23
ATOM     23  O   UNL     1      25.682   1.833  50.710  0.00  0.00    +0.000 OA
BRANCH  23  24
ATOM     24  C   UNL     1      26.852   1.525  51.496  0.00  0.00    +0.000 C 
ATOM     25  C   UNL     1      26.815   0.036  51.873  0.00  0.00    +0.000 C 
ATOM     26  C   UNL     1      25.811  -0.278  52.981  0.00  0.00    +0.000 C 
ATOM     27  N   UNL     1      26.014   0.565  54.157  0.00  0.00    +0.000 N 
ATOM     28  C   UNL     1      25.922   1.982  53.825  0.00  0.00    +0.000 C 
ATOM     29  C   UNL     1      26.948   2.377  52.770  0.00  0.00    +0.000 C 
ATOM     30  H   UNL     1      26.939   0.375  54.543  0.00  0.00    +0.000 HD
ATOM     31  H   UNL     1      25.283   0.348  54.833  0.00  0.00    +0.000 HD
ENDBRANCH  23  24
ENDBRANCH   3  23
TORSDOF 4
ENDMDL
MODEL 9
REMARK VINA RESULT:    -7.701      4.388      6.939
REMARK INTER + INTRA:         -10.723
REMARK INTER:                  -9.660
REMARK INTRA:                  -1.062
REMARK UNBOUND:                -1.221
REMARK  Name = 
REMARK  5 active torsions:
REMARK  status: ('A' for Active; 'I' for Inactive)
REMARK    1  A    between atoms: C_1  and  O_2
REMARK    2  A    between atoms: O_2  and  C_3
REMARK    3  A    between atoms: C_5  and  O_6
REMARK    4  A    between atoms: O_6  and  C_7
REMARK    5  A    between atoms: N_15  and  C_16
REMARK                            x       y       z     vdW  Elec       q    Type
REMARK                         _______ _______ _______ _____ _____    ______ ____
ROOT
ATOM      1  C   UNL     1      25.860   0.083  52.870  0.00  0.00    +0.000 A 
ATOM      2  C   UNL     1      25.369   1.061  52.015  0.00  0.00    +0.000 A 
ATOM      3  C   UNL     1      23.989   1.284  51.924  0.00  0.00    +0.000 A 
ATOM      4  C   UNL     1      23.096   0.587  52.804  0.00  0.00    +0.000 A 
ATOM      5  C   UNL     1      21.697   0.759  52.919  0.00  0.00    +0.000 A 
ATOM      6  N   UNL     1      21.037   1.793  52.206  0.00  0.00    +0.000 N 
ATOM      7  N   UNL     1      20.939   0.016  53.755  0.00  0.00    +0.000 NA
ATOM      8  C   UNL     1      21.561  -0.909  54.481  0.00  0.00    +0.000 A 
ATOM      9  N   UNL     1      22.869  -1.156  54.464  0.00  0.00    +0.000 NA
ATOM     10  C   UNL     1      23.616  -0.410  53.647  0.00  0.00    +0.000 A 
ATOM     11  C   UNL     1      24.974  -0.658  53.647  0.00  0.00    +0.000 A 
ATOM     12  H   UNL     1      21.530   2.633  52.062  0.00  0.00    +0.000 HD
ENDROOT
BRANCH   6  13
ATOM     13  C   UNL     1      19.725   1.707  51.688  0.00  0.00    +0.000 A 
ATOM     14  C   UNL     1      19.286   0.587  50.962  0.00  0.00    +0.000 A 
ATOM     15  C   UNL     1      18.008   0.545  50.415  0.00  0.00    +0.000 A 
ATOM     16  C   UNL     1      17.163   1.636  50.580  0.00  0.00    +0.000 A 
ATOM     17  F   UNL     1      15.933   1.579  50.042  0.00  0.00    +0.000 F 
ATOM     18  C   UNL     1      17.583   2.763  51.276  0.00  0.00    +0.000 A 
ATOM     19 CL   UNL     1      16.535   4.116  51.468  0.00  0.00    +0.000 Cl
ATOM     20  C   UNL     1      18.867   2.805  51.822  0.00  0.00    +0.000 A 
ENDBRANCH   6  13
BRANCH   1  22
ATOM     21  C   UNL     1      27.987   0.534  53.806  0.00  0.00    +0.000 C 
ATOM     22  O   UNL     1      27.171  -0.286  52.977  0.00  0.00    +0.000 OA
ENDBRANCH   1  22
BRANCH   3  23
ATOM     23  O   UNL     1      23.408   2.115  50.984  0.00  0.00    +0.000 OA
BRANCH  23  24
ATOM     24  C   UNL     1      23.971   3.420  50.739  0.00  0.00    +0.000 C 
ATOM     25  C   UNL     1      23.794   4.279  52.001  0.00  0.00    +0.000 C 
ATOM     26  C   UNL     1      22.362   4.775  52.193  0.00  0.00    +0.000 C 
ATOM     27  N   UNL     1      21.858   5.461  51.007  0.00  0.00    +0.000 N 
ATOM     28  C   UNL     1      21.905   4.604  49.828  0.00  0.00    +0.000 C 
ATOM     29  C   UNL     1      23.324   4.128  49.539  0.00  0.00    +0.000 C 
ATOM     30  H   UNL     1      22.430   6.289  50.837  0.00  0.00    +0.000 HD
ATOM     31  H   UNL     1      20.886   5.717  51.176  0.00  0.00    +0.000 HD
ENDBRANCH  23  24
ENDBRANCH   3  23
TORSDOF 4
ENDMDL
