MODEL 1
REMARK VINA RESULT:    -8.663      0.000      0.000
REMARK INTER + INTRA:         -11.119
REMARK INTER:                 -10.689
REMARK INTRA:                  -0.429
REMARK UNBOUND:                -0.429
REMARK  Name = 
REMARK  5 active torsions:
REMARK  status: ('A' for Active; 'I' for Inactive)
REMARK    1  A    between atoms: C_1  and  C_2
REMARK    2  A    between atoms: C_3  and  C_4
REMARK    3  A    between atoms: N_6  and  C_7
REMARK    4  A    between atoms: C_7  and  C_8
REMARK    5  A    between atoms: C_8  and  C_9
REMARK                            x       y       z     vdW  Elec       q    Type
REMARK                         _______ _______ _______ _____ _____    ______ ____
ROOT
ATOM      1  C   UNL     1      25.036   3.492  50.577  0.00  0.00    +0.000 C 
ATOM      2  O   UNL     1      24.036   2.893  50.167  0.00  0.00    +0.000 OA
ATOM      3  N   UNL     1      25.542   3.229  51.830  0.00  0.00    +0.000 N 
ATOM      4  H   UNL     1      26.331   3.740  52.121  0.00  0.00    +0.000 HD
ENDROOT
BRANCH   1   7
ATOM      5  C   UNL     1      24.129   6.362  48.750  0.00  0.00    +0.000 C 
ATOM      6  C   UNL     1      25.413   5.643  49.011  0.00  0.00    +0.000 A 
ATOM      7  C   UNL     1      25.724   4.481  49.725  0.00  0.00    +0.000 A 
ATOM      8  N   UNL     1      27.082   4.253  49.464  0.00  0.00    +0.000 N 
ATOM      9  C   UNL     1      27.644   5.264  48.722  0.00  0.00    +0.000 A 
ATOM     10  C   UNL     1      28.951   5.458  48.256  0.00  0.00    +0.000 A 
ATOM     11  C   UNL     1      29.204   6.626  47.527  0.00  0.00    +0.000 A 
ATOM     12  F   UNL     1      30.436   6.845  47.051  0.00  0.00    +0.000 F 
ATOM     13  C   UNL     1      28.219   7.570  47.278  0.00  0.00    +0.000 A 
ATOM     14  C   UNL     1      26.926   7.353  47.743  0.00  0.00    +0.000 A 
ATOM     15  C   UNL     1      26.634   6.170  48.462  0.00  0.00    +0.000 A 
ATOM     16  H   UNL     1      27.576   3.460  49.776  0.00  0.00    +0.000 HD
ENDBRANCH   1   7
BRANCH   3  17
ATOM     17  C   UNL     1      24.989   2.237  52.764  0.00  0.00    +0.000 C 
BRANCH  17  18
ATOM     18  C   UNL     1      25.994   1.867  53.878  0.00  0.00    +0.000 C 
BRANCH  18  19
ATOM     19  C   UNL     1      26.905   0.741  53.457  0.00  0.00    +0.000 A 
ATOM     20  C   UNL     1      26.369  -0.443  52.932  0.00  0.00    +0.000 A 
ATOM     21  C   UNL     1      27.176  -1.573  52.800  0.00  0.00    +0.000 A 
ATOM     22  C   UNL     1      28.509  -1.510  53.187  0.00  0.00    +0.000 A 
ATOM     23  F   UNL     1      29.257  -2.621  53.161  0.00  0.00    +0.000 F 
ATOM     24  C   UNL     1      29.075  -0.316  53.619  0.00  0.00    +0.000 A 
ATOM     25  C   UNL     1      28.280   0.822  53.721  0.00  0.00    +0.000 A 
ENDBRANCH  18  19
ENDBRANCH  17  18
ENDBRANCH   3  17
TORSDOF 4
ENDMDL
MODEL 2
REMARK VINA RESULT:    -8.571      6.220      9.332
REMARK INTER + INTRA:         -11.005
REMARK INTER:                 -10.685
REMARK INTRA:                  -0.320
REMARK UNBOUND:                -0.429
REMARK  Name = 
REMARK  5 active torsions:
REMARK  status: ('A' for Active; 'I' for Inactive)
REMARK    1  A    between atoms: C_1  and  C_2
REMARK    2  A    between atoms: C_3  and  C_4
REMARK    3  A    between atoms: N_6  and  C_7
REMARK    4  A    between atoms: C_7  and  C_8
REMARK    5  A    between atoms: C_8  and  C_9
REMARK                            x       y       z     vdW  Elec       q    Type
REMARK                         _______ _______ _______ _____ _____    ______ ____
ROOT
ATOM      1  C   UNL     1      21.976  -0.799  54.232  0.00  0.00    +0.000 C 
ATOM      2  O   UNL     1      22.209  -1.208  55.374  0.00  0.00    +0.000 OA
ATOM      3  N   UNL     1      23.002  -0.371  53.421  0.00  0.00    +0.000 N 
ATOM      4  H   UNL     1      22.768  -0.040  52.523  0.00  0.00    +0.000 HD
ENDROOT
BRANCH   1   7
ATOM      5  C   UNL     1      19.989   1.401  52.331  0.00  0.00    +0.000 C 
ATOM      6  C   UNL     1      19.784   0.045  52.925  0.00  0.00    +0.000 A 
ATOM      7  C   UNL     1      20.597  -0.785  53.703  0.00  0.00    +0.000 A 
ATOM      8  N   UNL     1      19.772  -1.859  54.066  0.00  0.00    +0.000 N 
ATOM      9  C   UNL     1      18.537  -1.787  53.467  0.00  0.00    +0.000 A 
ATOM     10  C   UNL     1      17.425  -2.638  53.528  0.00  0.00    +0.000 A 
ATOM     11  C   UNL     1      16.304  -2.280  52.770  0.00  0.00    +0.000 A 
ATOM     12  F   UNL     1      15.214  -3.057  52.809  0.00  0.00    +0.000 F 
ATOM     13  C   UNL     1      16.280  -1.143  51.977  0.00  0.00    +0.000 A 
ATOM     14  C   UNL     1      17.392  -0.308  51.938  0.00  0.00    +0.000 A 
ATOM     15  C   UNL     1      18.531  -0.630  52.712  0.00  0.00    +0.000 A 
ATOM     16  H   UNL     1      20.045  -2.579  54.679  0.00  0.00    +0.000 HD
ENDBRANCH   1   7
BRANCH   3  17
ATOM     17  C   UNL     1      24.423  -0.375  53.797  0.00  0.00    +0.000 C 
BRANCH  17  18
ATOM     18  C   UNL     1      25.290   0.416  52.793  0.00  0.00    +0.000 C 
BRANCH  18  19
ATOM     19  C   UNL     1      26.740   0.005  52.861  0.00  0.00    +0.000 A 
ATOM     20  C   UNL     1      27.095  -1.349  52.786  0.00  0.00    +0.000 A 
ATOM     21  C   UNL     1      28.389  -1.748  53.118  0.00  0.00    +0.000 A 
ATOM     22  C   UNL     1      29.318  -0.794  53.518  0.00  0.00    +0.000 A 
ATOM     23  F   UNL     1      30.527  -1.186  53.939  0.00  0.00    +0.000 F 
ATOM     24  C   UNL     1      29.005   0.560  53.504  0.00  0.00    +0.000 A 
ATOM     25  C   UNL     1      27.724   0.964  53.141  0.00  0.00    +0.000 A 
ENDBRANCH  18  19
ENDBRANCH  17  18
ENDBRANCH   3  17
TORSDOF 4
ENDMDL
MODEL 3
REMARK VINA RESULT:    -8.469      4.619      7.351
REMARK INTER + INTRA:         -10.879
REMARK INTER:                 -10.332
REMARK INTRA:                  -0.547
REMARK UNBOUND:                -0.429
REMARK  Name = 
REMARK  5 active torsions:
REMARK  status: ('A' for Active; 'I' for Inactive)
REMARK    1  A    between atoms: C_1  and  C_2
REMARK    2  A    between atoms: C_3  and  C_4
REMARK    3  A    between atoms: N_6  and  C_7
REMARK    4  A    between atoms: C_7  and  C_8
REMARK    5  A    between atoms: C_8  and  C_9
REMARK                            x       y       z     vdW  Elec       q    Type
REMARK                         _______ _______ _______ _____ _____    ______ ____
ROOT
ATOM      1  C   UNL     1      24.099   3.025  52.782  0.00  0.00    +0.000 C 
ATOM      2  O   UNL     1      24.131   4.111  53.371  0.00  0.00    +0.000 OA
ATOM      3  N   UNL     1      23.090   2.747  51.888  0.00  0.00    +0.000 N 
ATOM      4  H   UNL     1      23.096   1.863  51.453  0.00  0.00    +0.000 HD
ENDROOT
BRANCH   1   7
ATOM      5  C   UNL     1      24.245  -0.465  53.218  0.00  0.00    +0.000 C 
ATOM      6  C   UNL     1      25.259   0.630  53.149  0.00  0.00    +0.000 A 
ATOM      7  C   UNL     1      25.153   2.017  53.002  0.00  0.00    +0.000 A 
ATOM      8  N   UNL     1      26.461   2.495  53.163  0.00  0.00    +0.000 N 
ATOM      9  C   UNL     1      27.374   1.476  53.292  0.00  0.00    +0.000 A 
ATOM     10  C   UNL     1      28.765   1.490  53.451  0.00  0.00    +0.000 A 
ATOM     11  C   UNL     1      29.412   0.252  53.536  0.00  0.00    +0.000 A 
ATOM     12  F   UNL     1      30.741   0.219  53.702  0.00  0.00    +0.000 F 
ATOM     13  C   UNL     1      28.724  -0.949  53.456  0.00  0.00    +0.000 A 
ATOM     14  C   UNL     1      27.341  -0.940  53.307  0.00  0.00    +0.000 A 
ATOM     15  C   UNL     1      26.656   0.296  53.241  0.00  0.00    +0.000 A 
ATOM     16  H   UNL     1      26.697   3.451  53.182  0.00  0.00    +0.000 HD
ENDBRANCH   1   7
BRANCH   3  17
ATOM     17  C   UNL     1      22.005   3.674  51.535  0.00  0.00    +0.000 C 
BRANCH  17  18
ATOM     18  C   UNL     1      20.751   3.459  52.411  0.00  0.00    +0.000 C 
BRANCH  18  19
ATOM     19  C   UNL     1      20.323   2.013  52.429  0.00  0.00    +0.000 A 
ATOM     20  C   UNL     1      19.423   1.529  51.469  0.00  0.00    +0.000 A 
ATOM     21  C   UNL     1      18.823   0.283  51.643  0.00  0.00    +0.000 A 
ATOM     22  C   UNL     1      19.128  -0.472  52.770  0.00  0.00    +0.000 A 
ATOM     23  F   UNL     1      18.475  -1.619  52.993  0.00  0.00    +0.000 F 
ATOM     24  C   UNL     1      20.089  -0.046  53.680  0.00  0.00    +0.000 A 
ATOM     25  C   UNL     1      20.714   1.184  53.491  0.00  0.00    +0.000 A 
ENDBRANCH  18  19
ENDBRANCH  17  18
ENDBRANCH   3  17
TORSDOF 4
ENDMDL
MODEL 4
REMARK VINA RESULT:    -8.383      2.591      7.429
REMARK INTER + INTRA:         -10.773
REMARK INTER:                 -10.087
REMARK INTRA:                  -0.686
REMARK UNBOUND:                -0.429
REMARK  Name = 
REMARK  5 active torsions:
REMARK  status: ('A' for Active; 'I' for Inactive)
REMARK    1  A    between atoms: C_1  and  C_2
REMARK    2  A    between atoms: C_3  and  C_4
REMARK    3  A    between atoms: N_6  and  C_7
REMARK    4  A    between atoms: C_7  and  C_8
REMARK    5  A    between atoms: C_8  and  C_9
REMARK                            x       y       z     vdW  Elec       q    Type
REMARK                         _______ _______ _______ _____ _____    ______ ____
ROOT
ATOM      1  C   UNL     1      24.051   3.208  52.922  0.00  0.00    +0.000 C 
ATOM      2  O   UNL     1      24.272   4.336  53.378  0.00  0.00    +0.000 OA
ATOM      3  N   UNL     1      22.886   2.950  52.237  0.00  0.00    +0.000 N 
ATOM      4  H   UNL     1      22.745   2.034  51.904  0.00  0.00    +0.000 HD
ENDROOT
BRANCH   1   7
ATOM      5  C   UNL     1      23.975  -0.300  53.208  0.00  0.00    +0.000 C 
ATOM      6  C   UNL     1      25.058   0.729  53.164  0.00  0.00    +0.000 A 
ATOM      7  C   UNL     1      25.041   2.125  53.079  0.00  0.00    +0.000 A 
ATOM      8  N   UNL     1      26.380   2.510  53.233  0.00  0.00    +0.000 N 
ATOM      9  C   UNL     1      27.226   1.429  53.300  0.00  0.00    +0.000 A 
ATOM     10  C   UNL     1      28.618   1.346  53.432  0.00  0.00    +0.000 A 
ATOM     11  C   UNL     1      29.183   0.066  53.451  0.00  0.00    +0.000 A 
ATOM     12  F   UNL     1      30.509  -0.061  53.589  0.00  0.00    +0.000 F 
ATOM     13  C   UNL     1      28.416  -1.083  53.334  0.00  0.00    +0.000 A 
ATOM     14  C   UNL     1      27.034  -0.978  53.214  0.00  0.00    +0.000 A 
ATOM     15  C   UNL     1      26.431   0.301  53.215  0.00  0.00    +0.000 A 
ATOM     16  H   UNL     1      26.679   3.446  53.288  0.00  0.00    +0.000 HD
ENDBRANCH   1   7
BRANCH   3  17
ATOM     17  C   UNL     1      21.837   3.943  51.964  0.00  0.00    +0.000 C 
BRANCH  17  18
ATOM     18  C   UNL     1      21.881   4.447  50.504  0.00  0.00    +0.000 C 
BRANCH  18  19
ATOM     19  C   UNL     1      23.013   5.419  50.282  0.00  0.00    +0.000 A 
ATOM     20  C   UNL     1      24.168   5.016  49.599  0.00  0.00    +0.000 A 
ATOM     21  C   UNL     1      25.310   5.816  49.631  0.00  0.00    +0.000 A 
ATOM     22  C   UNL     1      25.288   7.012  50.339  0.00  0.00    +0.000 A 
ATOM     23  F   UNL     1      26.413   7.728  50.459  0.00  0.00    +0.000 F 
ATOM     24  C   UNL     1      24.121   7.467  50.940  0.00  0.00    +0.000 A 
ATOM     25  C   UNL     1      22.970   6.686  50.882  0.00  0.00    +0.000 A 
ENDBRANCH  18  19
ENDBRANCH  17  18
ENDBRANCH   3  17
TORSDOF 4
ENDMDL
MODEL 5
REMARK VINA RESULT:    -8.271      5.078      7.815
REMARK INTER + INTRA:         -10.634
REMARK INTER:                 -10.152
REMARK INTRA:                  -0.482
REMARK UNBOUND:                -0.429
REMARK  Name = 
REMARK  5 active torsions:
REMARK  status: ('A' for Active; 'I' for Inactive)
REMARK    1  A    between atoms: C_1  and  C_2
REMARK    2  A    between atoms: C_3  and  C_4
REMARK    3  A    between atoms: N_6  and  C_7
REMARK    4  A    between atoms: C_7  and  C_8
REMARK    5  A    between atoms: C_8  and  C_9
REMARK                            x       y       z     vdW  Elec       q    Type
REMARK                         _______ _______ _______ _____ _____    ______ ____
ROOT
ATOM      1  C   UNL     1      23.264   0.733  53.084  0.00  0.00    +0.000 C 
ATOM      2  O   UNL     1      23.904   0.020  53.864  0.00  0.00    +0.000 OA
ATOM      3  N   UNL     1      23.837   1.858  52.537  0.00  0.00    +0.000 N 
ATOM      4  H   UNL     1      23.285   2.404  51.931  0.00  0.00    +0.000 HD
ENDROOT
BRANCH   1   7
ATOM      5  C   UNL     1      20.746  -1.412  54.292  0.00  0.00    +0.000 C 
ATOM      6  C   UNL     1      20.845  -0.435  53.164  0.00  0.00    +0.000 A 
ATOM      7  C   UNL     1      21.883   0.379  52.700  0.00  0.00    +0.000 A 
ATOM      8  N   UNL     1      21.391   0.947  51.517  0.00  0.00    +0.000 N 
ATOM      9  C   UNL     1      20.078   0.612  51.288  0.00  0.00    +0.000 A 
ATOM     10  C   UNL     1      19.197   0.963  50.257  0.00  0.00    +0.000 A 
ATOM     11  C   UNL     1      17.894   0.456  50.330  0.00  0.00    +0.000 A 
ATOM     12  F   UNL     1      17.021   0.755  49.359  0.00  0.00    +0.000 F 
ATOM     13  C   UNL     1      17.471  -0.350  51.376  0.00  0.00    +0.000 A 
ATOM     14  C   UNL     1      18.366  -0.693  52.384  0.00  0.00    +0.000 A 
ATOM     15  C   UNL     1      19.696  -0.216  52.326  0.00  0.00    +0.000 A 
ATOM     16  H   UNL     1      21.925   1.519  50.919  0.00  0.00    +0.000 HD
ENDBRANCH   1   7
BRANCH   3  17
ATOM     17  C   UNL     1      25.216   2.302  52.790  0.00  0.00    +0.000 C 
BRANCH  17  18
ATOM     18  C   UNL     1      26.232   1.592  51.869  0.00  0.00    +0.000 C 
BRANCH  18  19
ATOM     19  C   UNL     1      27.245   0.801  52.659  0.00  0.00    +0.000 A 
ATOM     20  C   UNL     1      28.312   1.453  53.293  0.00  0.00    +0.000 A 
ATOM     21  C   UNL     1      29.385   0.712  53.786  0.00  0.00    +0.000 A 
ATOM     22  C   UNL     1      29.383  -0.671  53.647  0.00  0.00    +0.000 A 
ATOM     23  F   UNL     1      30.459  -1.374  54.024  0.00  0.00    +0.000 F 
ATOM     24  C   UNL     1      28.288  -1.335  53.107  0.00  0.00    +0.000 A 
ATOM     25  C   UNL     1      27.201  -0.600  52.643  0.00  0.00    +0.000 A 
ENDBRANCH  18  19
ENDBRANCH  17  18
ENDBRANCH   3  17
TORSDOF 4
ENDMDL
MODEL 6
REMARK VINA RESULT:    -8.196      2.129      2.745
REMARK INTER + INTRA:         -10.542
REMARK INTER:                 -10.150
REMARK INTRA:                  -0.392
REMARK UNBOUND:                -0.429
REMARK  Name = 
REMARK  5 active torsions:
REMARK  status: ('A' for Active; 'I' for Inactive)
REMARK    1  A    between atoms: C_1  and  C_2
REMARK    2  A    between atoms: C_3  and  C_4
REMARK    3  A    between atoms: N_6  and  C_7
REMARK    4  A    between atoms: C_7  and  C_8
REMARK    5  A    between atoms: C_8  and  C_9
REMARK                            x       y       z     vdW  Elec       q    Type
REMARK                         _______ _______ _______ _____ _____    ______ ____
ROOT
ATOM      1  C   UNL     1      25.911   2.946  51.370  0.00  0.00    +0.000 C 
ATOM      2  O   UNL     1      27.134   2.870  51.523  0.00  0.00    +0.000 OA
ATOM      3  N   UNL     1      25.061   2.221  52.174  0.00  0.00    +0.000 N 
ATOM      4  H   UNL     1      24.094   2.301  52.008  0.00  0.00    +0.000 HD
ENDROOT
BRANCH   1   7
ATOM      5  C   UNL     1      23.144   2.878  49.194  0.00  0.00    +0.000 C 
ATOM      6  C   UNL     1      24.230   3.863  49.485  0.00  0.00    +0.000 A 
ATOM      7  C   UNL     1      25.333   3.835  50.344  0.00  0.00    +0.000 A 
ATOM      8  N   UNL     1      26.051   5.002  50.043  0.00  0.00    +0.000 N 
ATOM      9  C   UNL     1      25.395   5.792  49.130  0.00  0.00    +0.000 A 
ATOM     10  C   UNL     1      25.727   7.031  48.567  0.00  0.00    +0.000 A 
ATOM     11  C   UNL     1      24.816   7.587  47.661  0.00  0.00    +0.000 A 
ATOM     12  F   UNL     1      25.099   8.764  47.088  0.00  0.00    +0.000 F 
ATOM     13  C   UNL     1      23.625   6.959  47.331  0.00  0.00    +0.000 A 
ATOM     14  C   UNL     1      23.319   5.725  47.895  0.00  0.00    +0.000 A 
ATOM     15  C   UNL     1      24.231   5.126  48.796  0.00  0.00    +0.000 A 
ATOM     16  H   UNL     1      26.923   5.228  50.440  0.00  0.00    +0.000 HD
ENDBRANCH   1   7
BRANCH   3  17
ATOM     17  C   UNL     1      25.493   1.335  53.265  0.00  0.00    +0.000 C 
BRANCH  17  18
ATOM     18  C   UNL     1      25.784  -0.098  52.769  0.00  0.00    +0.000 C 
BRANCH  18  19
ATOM     19  C   UNL     1      27.238  -0.463  52.933  0.00  0.00    +0.000 A 
ATOM     20  C   UNL     1      27.666  -1.781  52.719  0.00  0.00    +0.000 A 
ATOM     21  C   UNL     1      28.939  -2.174  53.130  0.00  0.00    +0.000 A 
ATOM     22  C   UNL     1      29.775  -1.250  53.745  0.00  0.00    +0.000 A 
ATOM     23  F   UNL     1      30.955  -1.651  54.235  0.00  0.00    +0.000 F 
ATOM     24  C   UNL     1      29.399   0.082  53.876  0.00  0.00    +0.000 A 
ATOM     25  C   UNL     1      28.141   0.485  53.437  0.00  0.00    +0.000 A 
ENDBRANCH  18  19
ENDBRANCH  17  18
ENDBRANCH   3  17
TORSDOF 4
ENDMDL
MODEL 7
REMARK VINA RESULT:    -8.085      4.663      7.215
REMARK INTER + INTRA:         -10.405
REMARK INTER:                  -9.891
REMARK INTRA:                  -0.514
REMARK UNBOUND:                -0.429
REMARK  Name = 
REMARK  5 active torsions:
REMARK  status: ('A' for Active; 'I' for Inactive)
REMARK    1  A    between atoms: C_1  and  C_2
REMARK    2  A    between atoms: C_3  and  C_4
REMARK    3  A    between atoms: N_6  and  C_7
REMARK    4  A    between atoms: C_7  and  C_8
REMARK    5  A    between atoms: C_8  and  C_9
REMARK                            x       y       z     vdW  Elec       q    Type
REMARK                         _______ _______ _______ _____ _____    ______ ____
ROOT
ATOM      1  C   UNL     1      23.236  -0.292  53.642  0.00  0.00    +0.000 C 
ATOM      2  O   UNL     1      22.865  -0.918  54.641  0.00  0.00    +0.000 OA
ATOM      3  N   UNL     1      22.370  -0.073  52.595  0.00  0.00    +0.000 N 
ATOM      4  H   UNL     1      22.713   0.418  51.813  0.00  0.00    +0.000 HD
ENDROOT
BRANCH   1   7
ATOM      5  C   UNL     1      24.692   2.885  53.214  0.00  0.00    +0.000 C 
ATOM      6  C   UNL     1      25.223   1.504  53.425  0.00  0.00    +0.000 A 
ATOM      7  C   UNL     1      24.603   0.258  53.562  0.00  0.00    +0.000 A 
ATOM      8  N   UNL     1      25.657  -0.666  53.581  0.00  0.00    +0.000 N 
ATOM      9  C   UNL     1      26.886  -0.051  53.573  0.00  0.00    +0.000 A 
ATOM     10  C   UNL     1      28.186  -0.572  53.604  0.00  0.00    +0.000 A 
ATOM     11  C   UNL     1      29.243   0.345  53.601  0.00  0.00    +0.000 A 
ATOM     12  F   UNL     1      30.503  -0.110  53.616  0.00  0.00    +0.000 F 
ATOM     13  C   UNL     1      29.033   1.715  53.583  0.00  0.00    +0.000 A 
ATOM     14  C   UNL     1      27.735   2.211  53.543  0.00  0.00    +0.000 A 
ATOM     15  C   UNL     1      26.645   1.309  53.521  0.00  0.00    +0.000 A 
ATOM     16  H   UNL     1      25.531  -1.642  53.598  0.00  0.00    +0.000 HD
ENDBRANCH   1   7
BRANCH   3  17
ATOM     17  C   UNL     1      20.969  -0.519  52.560  0.00  0.00    +0.000 C 
BRANCH  17  18
ATOM     18  C   UNL     1      20.037   0.549  51.947  0.00  0.00    +0.000 C 
BRANCH  18  19
ATOM     19  C   UNL     1      20.735   1.356  50.881  0.00  0.00    +0.000 A 
ATOM     20  C   UNL     1      20.984   0.796  49.620  0.00  0.00    +0.000 A 
ATOM     21  C   UNL     1      21.858   1.431  48.738  0.00  0.00    +0.000 A 
ATOM     22  C   UNL     1      22.472   2.618  49.119  0.00  0.00    +0.000 A 
ATOM     23  F   UNL     1      23.391   3.173  48.318  0.00  0.00    +0.000 F 
ATOM     24  C   UNL     1      22.160   3.231  50.327  0.00  0.00    +0.000 A 
ATOM     25  C   UNL     1      21.263   2.617  51.196  0.00  0.00    +0.000 A 
ENDBRANCH  18  19
ENDBRANCH  17  18
ENDBRANCH   3  17
TORSDOF 4
ENDMDL
MODEL 8
REMARK VINA RESULT:    -8.026      3.278      4.099
REMARK INTER + INTRA:         -10.332
REMARK INTER:                 -10.047
REMARK INTRA:                  -0.285
REMARK UNBOUND:                -0.429
REMARK  Name = 
REMARK  5 active torsions:
REMARK  status: ('A' for Active; 'I' for Inactive)
REMARK    1  A    between atoms: C_1  and  C_2
REMARK    2  A    between atoms: C_3  and  C_4
REMARK    3  A    between atoms: N_6  and  C_7
REMARK    4  A    between atoms: C_7  and  C_8
REMARK    5  A    between atoms: C_8  and  C_9
REMARK                            x       y       z     vdW  Elec       q    Type
REMARK                         _______ _______ _______ _____ _____    ______ ____
ROOT
ATOM      1  C   UNL     1      26.400   2.611  51.225  0.00  0.00    +0.000 C 
ATOM      2  O   UNL     1      27.487   2.587  51.812  0.00  0.00    +0.000 OA
ATOM      3  N   UNL     1      25.474   1.614  51.431  0.00  0.00    +0.000 N 
ATOM      4  H   UNL     1      24.627   1.667  50.931  0.00  0.00    +0.000 HD
ENDROOT
BRANCH   1   7
ATOM      5  C   UNL     1      23.470   3.929  49.783  0.00  0.00    +0.000 C 
ATOM      6  C   UNL     1      24.919   4.295  49.745  0.00  0.00    +0.000 A 
ATOM      7  C   UNL     1      26.060   3.722  50.314  0.00  0.00    +0.000 A 
ATOM      8  N   UNL     1      27.132   4.450  49.780  0.00  0.00    +0.000 N 
ATOM      9  C   UNL     1      26.707   5.502  49.003  0.00  0.00    +0.000 A 
ATOM     10  C   UNL     1      27.419   6.485  48.303  0.00  0.00    +0.000 A 
ATOM     11  C   UNL     1      26.670   7.443  47.609  0.00  0.00    +0.000 A 
ATOM     12  F   UNL     1      27.309   8.394  46.914  0.00  0.00    +0.000 F 
ATOM     13  C   UNL     1      25.284   7.444  47.614  0.00  0.00    +0.000 A 
ATOM     14  C   UNL     1      24.598   6.453  48.309  0.00  0.00    +0.000 A 
ATOM     15  C   UNL     1      25.326   5.457  49.000  0.00  0.00    +0.000 A 
ATOM     16  H   UNL     1      28.079   4.233  49.942  0.00  0.00    +0.000 HD
ENDBRANCH   1   7
BRANCH   3  17
ATOM     17  C   UNL     1      25.657   0.477  52.344  0.00  0.00    +0.000 C 
BRANCH  17  18
ATOM     18  C   UNL     1      24.823   0.630  53.635  0.00  0.00    +0.000 C 
BRANCH  18  19
ATOM     19  C   UNL     1      23.486  -0.058  53.521  0.00  0.00    +0.000 A 
ATOM     20  C   UNL     1      22.585   0.310  52.512  0.00  0.00    +0.000 A 
ATOM     21  C   UNL     1      21.261  -0.125  52.570  0.00  0.00    +0.000 A 
ATOM     22  C   UNL     1      20.849  -0.924  53.629  0.00  0.00    +0.000 A 
ATOM     23  F   UNL     1      19.556  -1.254  53.743  0.00  0.00    +0.000 F 
ATOM     24  C   UNL     1      21.755  -1.373  54.583  0.00  0.00    +0.000 A 
ATOM     25  C   UNL     1      23.085  -0.968  54.510  0.00  0.00    +0.000 A 
ENDBRANCH  18  19
ENDBRANCH  17  18
ENDBRANCH   3  17
TORSDOF 4
ENDMDL
MODEL 9
REMARK VINA RESULT:    -7.981      2.935      8.513
REMARK INTER + INTRA:         -10.277
REMARK INTER:                  -9.942
REMARK INTRA:                  -0.335
REMARK UNBOUND:                -0.429
REMARK  Name = 
REMARK  5 active torsions:
REMARK  status: ('A' for Active; 'I' for Inactive)
REMARK    1  A    between atoms: C_1  and  C_2
REMARK    2  A    between atoms: C_3  and  C_4
REMARK    3  A    between atoms: N_6  and  C_7
REMARK    4  A    between atoms: C_7  and  C_8
REMARK    5  A    between atoms: C_8  and  C_9
REMARK                            x       y       z     vdW  Elec       q    Type
REMARK                         _______ _______ _______ _____ _____    ______ ____
ROOT
ATOM      1  C   UNL     1      23.507   2.896  50.346  0.00  0.00    +0.000 C 
ATOM      2  O   UNL     1      22.955   2.889  49.240  0.00  0.00    +0.000 OA
ATOM      3  N   UNL     1      24.626   3.668  50.562  0.00  0.00    +0.000 N 
ATOM      4  H   UNL     1      25.041   3.631  51.455  0.00  0.00    +0.000 HD
ENDROOT
BRANCH   1   7
ATOM      5  C   UNL     1      20.456   2.695  52.092  0.00  0.00    +0.000 C 
ATOM      6  C   UNL     1      21.759   1.967  52.163  0.00  0.00    +0.000 A 
ATOM      7  C   UNL     1      22.963   2.101  51.464  0.00  0.00    +0.000 A 
ATOM      8  N   UNL     1      23.848   1.222  52.103  0.00  0.00    +0.000 N 
ATOM      9  C   UNL     1      23.227   0.480  53.080  0.00  0.00    +0.000 A 
ATOM     10  C   UNL     1      23.713  -0.513  53.940  0.00  0.00    +0.000 A 
ATOM     11  C   UNL     1      22.798  -1.094  54.825  0.00  0.00    +0.000 A 
ATOM     12  F   UNL     1      23.221  -2.039  55.676  0.00  0.00    +0.000 F 
ATOM     13  C   UNL     1      21.462  -0.725  54.857  0.00  0.00    +0.000 A 
ATOM     14  C   UNL     1      21.004   0.270  54.000  0.00  0.00    +0.000 A 
ATOM     15  C   UNL     1      21.909   0.894  53.109  0.00  0.00    +0.000 A 
ATOM     16  H   UNL     1      24.803   1.144  51.877  0.00  0.00    +0.000 HD
ENDBRANCH   1   7
BRANCH   3  17
ATOM     17  C   UNL     1      25.246   4.544  49.558  0.00  0.00    +0.000 C 
BRANCH  17  18
ATOM     18  C   UNL     1      26.723   4.175  49.299  0.00  0.00    +0.000 C 
BRANCH  18  19
ATOM     19  C   UNL     1      27.478   5.311  48.655  0.00  0.00    +0.000 A 
ATOM     20  C   UNL     1      28.821   5.148  48.287  0.00  0.00    +0.000 A 
ATOM     21  C   UNL     1      29.589   6.262  47.949  0.00  0.00    +0.000 A 
ATOM     22  C   UNL     1      29.011   7.526  47.977  0.00  0.00    +0.000 A 
ATOM     23  F   UNL     1      29.772   8.605  47.757  0.00  0.00    +0.000 F 
ATOM     24  C   UNL     1      27.657   7.689  48.248  0.00  0.00    +0.000 A 
ATOM     25  C   UNL     1      26.880   6.575  48.553  0.00  0.00    +0.000 A 
ENDBRANCH  18  19
ENDBRANCH  17  18
ENDBRANCH   3  17
TORSDOF 4
ENDMDL
