
     RDKit          3D

 49 52  0  0  0  0  0  0  0  0999 V2000
    7.6223   -0.9558   -0.6487 C   0  0  0  0  0  0  0  0  0  0  0  0
    6.4351   -1.0124   -1.4329 O   0  0  0  0  0  0  0  0  0  0  0  0
    5.2536   -0.3158   -1.1367 C   0  0  0  0  0  0  0  0  0  0  0  0
    4.1626   -0.4673   -1.9989 C   0  0  0  0  0  0  0  0  0  0  0  0
    2.9510    0.1898   -1.7481 C   0  0  0  0  0  0  0  0  0  0  0  0
    1.8540    0.0190   -2.6621 N   0  0  0  0  0  0  0  0  0  0  0  0
    0.4770   -0.0359   -2.2627 C   0  0  0  0  0  0  0  0  0  0  0  0
   -0.4978   -0.0243   -3.2101 N   0  0  0  0  0  0  0  0  0  0  0  0
   -1.8099   -0.0993   -2.8697 C   0  0  0  0  0  0  0  0  0  0  0  0
   -2.1758   -0.1967   -1.5235 C   0  0  0  0  0  0  0  0  0  0  0  0
   -3.5111   -0.2611   -1.1313 C   0  0  0  0  0  0  0  0  0  0  0  0
   -3.8317   -0.3365    0.2256 C   0  0  0  0  0  0  0  0  0  0  0  0
   -5.2527   -0.3874    0.6362 C   0  0  0  0  0  0  0  0  0  0  0  0
   -6.0556    0.7712    0.5690 C   0  0  0  0  0  0  0  0  0  0  0  0
   -5.4024    2.3137    0.0256 Cl  0  0  0  0  0  0  0  0  0  0  0  0
   -7.3985    0.7143    0.9581 C   0  0  0  0  0  0  0  0  0  0  0  0
   -7.9503   -0.4846    1.4119 C   0  0  0  0  0  0  0  0  0  0  0  0
   -7.1640   -1.6356    1.4795 C   0  0  0  0  0  0  0  0  0  0  0  0
   -5.8193   -1.5960    1.0944 C   0  0  0  0  0  0  0  0  0  0  0  0
   -4.8784   -3.0826    1.1727 Cl  0  0  0  0  0  0  0  0  0  0  0  0
   -2.7969   -0.3534    1.1804 C   0  0  0  0  0  0  0  0  0  0  0  0
   -3.0937   -0.3874    2.4078 O   0  0  0  0  0  0  0  0  0  0  0  0
   -1.4798   -0.3247    0.7845 N   0  0  0  0  0  0  0  0  0  0  0  0
   -0.4037   -0.3203    1.7917 C   0  0  0  0  0  0  0  0  0  0  0  0
   -1.1611   -0.2249   -0.5485 C   0  0  0  0  0  0  0  0  0  0  0  0
    0.1377   -0.1471   -0.9500 N   0  0  0  0  0  0  0  0  0  0  0  0
    2.8515    1.0449   -0.6376 C   0  0  0  0  0  0  0  0  0  0  0  0
    3.9299    1.2097    0.2376 C   0  0  0  0  0  0  0  0  0  0  0  0
    3.7667    2.0666    1.3366 O   0  0  0  0  0  0  0  0  0  0  0  0
    4.7715    2.3284    2.3108 C   0  0  0  0  0  0  0  0  0  0  0  0
    5.1325    0.5215   -0.0115 C   0  0  0  0  0  0  0  0  0  0  0  0
    8.0053    0.0859   -0.6102 H   0  0  0  0  0  0  0  0  0  0  0  0
    8.3951   -1.6011   -1.1141 H   0  0  0  0  0  0  0  0  0  0  0  0
    7.4199   -1.3276    0.3779 H   0  0  0  0  0  0  0  0  0  0  0  0
    4.2552   -1.1126   -2.8639 H   0  0  0  0  0  0  0  0  0  0  0  0
    2.0736   -0.1736   -3.6658 H   0  0  0  0  0  0  0  0  0  0  0  0
   -2.5621   -0.0806   -3.6485 H   0  0  0  0  0  0  0  0  0  0  0  0
   -4.3013   -0.2441   -1.8739 H   0  0  0  0  0  0  0  0  0  0  0  0
   -8.0164    1.6021    0.9115 H   0  0  0  0  0  0  0  0  0  0  0  0
   -8.9898   -0.5219    1.7112 H   0  0  0  0  0  0  0  0  0  0  0  0
   -7.6027   -2.5617    1.8290 H   0  0  0  0  0  0  0  0  0  0  0  0
    0.4693   -0.9119    1.4416 H   0  0  0  0  0  0  0  0  0  0  0  0
   -0.7296   -0.7845    2.7464 H   0  0  0  0  0  0  0  0  0  0  0  0
   -0.0815    0.7241    1.9876 H   0  0  0  0  0  0  0  0  0  0  0  0
    1.9439    1.6060   -0.4576 H   0  0  0  0  0  0  0  0  0  0  0  0
    4.3704    3.0375    3.0636 H   0  0  0  0  0  0  0  0  0  0  0  0
    5.0580    1.3874    2.8263 H   0  0  0  0  0  0  0  0  0  0  0  0
    5.6606    2.7871    1.8288 H   0  0  0  0  0  0  0  0  0  0  0  0
    5.9693    0.6428    0.6601 H   0  0  0  0  0  0  0  0  0  0  0  0
  1  2  1  0
  2  3  1  0
  3  4  2  0
  4  5  1  0
  5  6  1  0
  6  7  1  0
  7  8  2  0
  8  9  1  0
  9 10  2  0
 10 11  1  0
 11 12  2  0
 12 13  1  0
 13 14  2  0
 14 15  1  0
 14 16  1  0
 16 17  2  0
 17 18  1  0
 18 19  2  0
 19 20  1  0
 12 21  1  0
 21 22  2  0
 21 23  1  0
 23 24  1  0
 23 25  1  0
 25 26  2  0
  5 27  2  0
 27 28  1  0
 28 29  1  0
 29 30  1  0
 28 31  2  0
 31  3  1  0
 26  7  1  0
 25 10  1  0
 19 13  1  0
  1 32  1  0
  1 33  1  0
  1 34  1  0
  4 35  1  0
  6 36  1  0
  9 37  1  0
 11 38  1  0
 16 39  1  0
 17 40  1  0
 18 41  1  0
 24 42  1  0
 24 43  1  0
 24 44  1  0
 27 45  1  0
 30 46  1  0
 30 47  1  0
 30 48  1  0
 31 49  1  0
M  END
