
     RDKit          3D

 73 77  0  0  0  0  0  0  0  0999 V2000
   11.4158    1.6538   -0.4109 C   0  0  0  0  0  0  0  0  0  0  0  0
   11.6796    0.2379   -0.0930 N   0  0  0  0  0  0  0  0  0  0  0  0
   13.1287    0.0248    0.0518 C   0  0  0  0  0  0  0  0  0  0  0  0
   10.9828   -0.1584    1.1486 C   0  0  0  0  0  0  0  0  0  0  0  0
    9.5140   -0.3431    0.8935 C   0  0  0  0  0  0  0  0  0  0  0  0
    9.0708   -1.3248    0.1026 C   0  0  0  0  0  0  0  0  0  0  0  0
    7.6406   -1.5520   -0.1760 C   0  0  0  0  0  0  0  0  0  0  0  0
    7.2954   -2.6616   -0.6636 O   0  0  0  0  0  0  0  0  0  0  0  0
    6.6559   -0.5227    0.0337 N   0  0  0  0  0  0  0  0  0  0  0  0
    5.2421   -0.7749   -0.0351 C   0  0  0  0  0  0  0  0  0  0  0  0
    4.6839   -1.9247    0.5457 C   0  0  0  0  0  0  0  0  0  0  0  0
    3.3134   -2.1706    0.4417 C   0  0  0  0  0  0  0  0  0  0  0  0
    2.4872   -1.2696   -0.2355 C   0  0  0  0  0  0  0  0  0  0  0  0
    3.0223   -0.0917   -0.7929 C   0  0  0  0  0  0  0  0  0  0  0  0
    2.2098    0.8279   -1.5465 N   0  0  0  0  0  0  0  0  0  0  0  0
    0.7756    0.8515   -1.5160 C   0  0  0  0  0  0  0  0  0  0  0  0
    0.1174    0.6714   -0.3385 N   0  0  0  0  0  0  0  0  0  0  0  0
   -1.2397    0.7024   -0.2714 C   0  0  0  0  0  0  0  0  0  0  0  0
   -1.8925    0.5352    0.9948 N   0  0  0  0  0  0  0  0  0  0  0  0
   -3.2759    0.3107    1.1245 N   0  0  0  0  0  0  0  0  0  0  0  0
   -3.9438   -0.4684    0.3300 C   0  0  0  0  0  0  0  0  0  0  0  0
   -5.3928   -0.6435    0.5048 C   0  0  0  0  0  0  0  0  0  0  0  0
   -6.2213    0.0628    1.3709 C   0  0  0  0  0  0  0  0  0  0  0  0
   -7.5039   -0.3559    1.2395 N   0  0  0  0  0  0  0  0  0  0  0  0
   -8.6661    0.2417    1.8986 C   0  0  0  0  0  0  0  0  0  0  0  0
   -9.2529    1.3202    1.0277 C   0  0  0  0  0  0  0  0  0  0  0  0
   -8.5941    2.5537    0.8974 C   0  0  0  0  0  0  0  0  0  0  0  0
   -9.1112    3.5453    0.0580 C   0  0  0  0  0  0  0  0  0  0  0  0
  -10.2861    3.3108   -0.6613 C   0  0  0  0  0  0  0  0  0  0  0  0
  -10.9463    2.0856   -0.5408 C   0  0  0  0  0  0  0  0  0  0  0  0
  -10.4332    1.0918    0.3002 C   0  0  0  0  0  0  0  0  0  0  0  0
   -7.4946   -1.3158    0.2891 C   0  0  0  0  0  0  0  0  0  0  0  0
   -8.5778   -2.0382   -0.2204 C   0  0  0  0  0  0  0  0  0  0  0  0
   -8.3244   -2.9858   -1.2284 C   0  0  0  0  0  0  0  0  0  0  0  0
   -7.0122   -3.1890   -1.7057 C   0  0  0  0  0  0  0  0  0  0  0  0
   -5.9393   -2.4477   -1.1805 C   0  0  0  0  0  0  0  0  0  0  0  0
   -6.2182   -1.5170   -0.1790 C   0  0  0  0  0  0  0  0  0  0  0  0
   -1.9633    0.9537   -1.3955 N   0  0  0  0  0  0  0  0  0  0  0  0
   -1.3542    1.1585   -2.5909 C   0  0  0  0  0  0  0  0  0  0  0  0
    0.0384    1.1174   -2.6802 C   0  0  0  0  0  0  0  0  0  0  0  0
    0.8128    1.3688   -4.2382 Cl  0  0  0  0  0  0  0  0  0  0  0  0
    4.4022    0.1464   -0.6809 C   0  0  0  0  0  0  0  0  0  0  0  0
   10.3284    1.8242   -0.5519 H   0  0  0  0  0  0  0  0  0  0  0  0
   11.9151    1.9320   -1.3626 H   0  0  0  0  0  0  0  0  0  0  0  0
   11.7876    2.3236    0.3970 H   0  0  0  0  0  0  0  0  0  0  0  0
   13.3439   -1.0566    0.1992 H   0  0  0  0  0  0  0  0  0  0  0  0
   13.6544    0.3328   -0.8785 H   0  0  0  0  0  0  0  0  0  0  0  0
   13.5395    0.5993    0.9138 H   0  0  0  0  0  0  0  0  0  0  0  0
   11.1306    0.6037    1.9479 H   0  0  0  0  0  0  0  0  0  0  0  0
   11.3840   -1.1233    1.5347 H   0  0  0  0  0  0  0  0  0  0  0  0
    8.8217    0.3225    1.3921 H   0  0  0  0  0  0  0  0  0  0  0  0
    9.7855   -2.0153   -0.3288 H   0  0  0  0  0  0  0  0  0  0  0  0
    6.9712    0.4730    0.0394 H   0  0  0  0  0  0  0  0  0  0  0  0
    5.3085   -2.6288    1.0811 H   0  0  0  0  0  0  0  0  0  0  0  0
    2.8913   -3.0697    0.8749 H   0  0  0  0  0  0  0  0  0  0  0  0
    1.4393   -1.5145   -0.3415 H   0  0  0  0  0  0  0  0  0  0  0  0
    2.6941    1.4987   -2.1845 H   0  0  0  0  0  0  0  0  0  0  0  0
   -1.3378    0.7165    1.8619 H   0  0  0  0  0  0  0  0  0  0  0  0
   -3.4338   -1.0233   -0.4471 H   0  0  0  0  0  0  0  0  0  0  0  0
   -5.9040    0.8559    2.0379 H   0  0  0  0  0  0  0  0  0  0  0  0
   -8.3609    0.6799    2.8733 H   0  0  0  0  0  0  0  0  0  0  0  0
   -9.4184   -0.5424    2.1306 H   0  0  0  0  0  0  0  0  0  0  0  0
   -7.6816    2.7457    1.4455 H   0  0  0  0  0  0  0  0  0  0  0  0
   -8.5995    4.4943   -0.0360 H   0  0  0  0  0  0  0  0  0  0  0  0
  -10.6827    4.0775   -1.3143 H   0  0  0  0  0  0  0  0  0  0  0  0
  -11.8538    1.9026   -1.1032 H   0  0  0  0  0  0  0  0  0  0  0  0
  -10.9558    0.1475    0.3812 H   0  0  0  0  0  0  0  0  0  0  0  0
   -9.5831   -1.8874    0.1465 H   0  0  0  0  0  0  0  0  0  0  0  0
   -9.1413   -3.5632   -1.6405 H   0  0  0  0  0  0  0  0  0  0  0  0
   -6.8309   -3.9210   -2.4812 H   0  0  0  0  0  0  0  0  0  0  0  0
   -4.9319   -2.5962   -1.5477 H   0  0  0  0  0  0  0  0  0  0  0  0
   -1.9535    1.3566   -3.4709 H   0  0  0  0  0  0  0  0  0  0  0  0
    4.8290    1.0389   -1.1212 H   0  0  0  0  0  0  0  0  0  0  0  0
  1  2  1  0
  2  3  1  0
  2  4  1  0
  4  5  1  0
  5  6  2  0
  6  7  1  0
  7  8  2  0
  7  9  1  0
  9 10  1  0
 10 11  2  0
 11 12  1  0
 12 13  2  0
 13 14  1  0
 14 15  1  0
 15 16  1  0
 16 17  2  0
 17 18  1  0
 18 19  1  0
 19 20  1  0
 20 21  2  0
 21 22  1  0
 22 23  2  0
 23 24  1  0
 24 25  1  0
 25 26  1  0
 26 27  2  0
 27 28  1  0
 28 29  2  0
 29 30  1  0
 30 31  2  0
 24 32  1  0
 32 33  2  0
 33 34  1  0
 34 35  2  0
 35 36  1  0
 36 37  2  0
 18 38  2  0
 38 39  1  0
 39 40  2  0
 40 41  1  0
 14 42  2  0
 42 10  1  0
 40 16  1  0
 37 22  1  0
 31 26  1  0
 37 32  1  0
  1 43  1  0
  1 44  1  0
  1 45  1  0
  3 46  1  0
  3 47  1  0
  3 48  1  0
  4 49  1  0
  4 50  1  0
  5 51  1  0
  6 52  1  0
  9 53  1  0
 11 54  1  0
 12 55  1  0
 13 56  1  0
 15 57  1  0
 19 58  1  0
 21 59  1  0
 23 60  1  0
 25 61  1  0
 25 62  1  0
 27 63  1  0
 28 64  1  0
 29 65  1  0
 30 66  1  0
 31 67  1  0
 33 68  1  0
 34 69  1  0
 35 70  1  0
 36 71  1  0
 39 72  1  0
 42 73  1  0
M  END
