
     RDKit          3D

 47 50  0  0  0  0  0  0  0  0999 V2000
    1.7655   -4.9224    1.6720 C   0  0  0  0  0  0  0  0  0  0  0  0
    2.0137   -3.6139    1.6895 C   0  0  0  0  0  0  0  0  0  0  0  0
    1.3709   -2.6720    0.7545 C   0  0  0  0  0  0  0  0  0  0  0  0
    0.5621   -3.0950   -0.1169 O   0  0  0  0  0  0  0  0  0  0  0  0
    1.7007   -1.2757    0.8203 N   0  0  0  0  0  0  0  0  0  0  0  0
    0.9964   -0.2526    0.0930 C   0  0  0  0  0  0  0  0  0  0  0  0
   -0.4027   -0.3047   -0.0407 C   0  0  0  0  0  0  0  0  0  0  0  0
   -1.0950    0.7018   -0.7372 C   0  0  0  0  0  0  0  0  0  0  0  0
   -2.4971    0.6906   -0.9102 C   0  0  0  0  0  0  0  0  0  0  0  0
   -3.3019   -0.4159   -0.4661 N   0  0  0  0  0  0  0  0  0  0  0  0
   -4.6744   -0.2778   -0.0566 C   0  0  0  0  0  0  0  0  0  0  0  0
   -5.1348    0.9050    0.5522 C   0  0  0  0  0  0  0  0  0  0  0  0
   -6.4661    1.0168    0.9635 C   0  0  0  0  0  0  0  0  0  0  0  0
   -7.3484   -0.0517    0.7822 C   0  0  0  0  0  0  0  0  0  0  0  0
   -9.1668    0.1039    1.3449 Br  0  0  0  0  0  0  0  0  0  0  0  0
   -6.8961   -1.2372    0.1956 C   0  0  0  0  0  0  0  0  0  0  0  0
   -5.5647   -1.3547   -0.2170 C   0  0  0  0  0  0  0  0  0  0  0  0
   -5.1475   -2.5131   -0.7874 F   0  0  0  0  0  0  0  0  0  0  0  0
   -3.0926    1.7242   -1.5663 N   0  0  0  0  0  0  0  0  0  0  0  0
   -2.3754    2.7669   -2.0545 C   0  0  0  0  0  0  0  0  0  0  0  0
   -1.0282    2.7953   -1.9054 N   0  0  0  0  0  0  0  0  0  0  0  0
   -0.3733    1.7939   -1.2631 C   0  0  0  0  0  0  0  0  0  0  0  0
    1.0144    1.8587   -1.1141 C   0  0  0  0  0  0  0  0  0  0  0  0
    1.7089    0.8394   -0.4366 C   0  0  0  0  0  0  0  0  0  0  0  0
    3.1037    0.8739   -0.2762 O   0  0  0  0  0  0  0  0  0  0  0  0
    3.9504    1.9120   -0.7598 C   0  0  0  0  0  0  0  0  0  0  0  0
    5.3634    1.5967   -0.4002 C   0  0  0  0  0  0  0  0  0  0  0  0
    6.2020    0.7494   -1.0956 C   0  0  0  0  0  0  0  0  0  0  0  0
    7.3846    0.7380   -0.3877 C   0  0  0  0  0  0  0  0  0  0  0  0
    7.1916    1.5727    0.6952 C   0  0  0  0  0  0  0  0  0  0  0  0
    5.9754    2.0673    0.6617 O   0  0  0  0  0  0  0  0  0  0  0  0
    1.0747   -5.3588    0.9619 H   0  0  0  0  0  0  0  0  0  0  0  0
    2.2613   -5.5745    2.3793 H   0  0  0  0  0  0  0  0  0  0  0  0
    2.7131   -3.2279    2.4208 H   0  0  0  0  0  0  0  0  0  0  0  0
    2.5471   -1.0001    1.3682 H   0  0  0  0  0  0  0  0  0  0  0  0
   -0.9413   -1.1108    0.4362 H   0  0  0  0  0  0  0  0  0  0  0  0
   -2.9133   -1.3804   -0.5638 H   0  0  0  0  0  0  0  0  0  0  0  0
   -4.4626    1.7349    0.7267 H   0  0  0  0  0  0  0  0  0  0  0  0
   -6.8092    1.9320    1.4287 H   0  0  0  0  0  0  0  0  0  0  0  0
   -7.5765   -2.0681    0.0592 H   0  0  0  0  0  0  0  0  0  0  0  0
   -2.8786    3.5737   -2.5693 H   0  0  0  0  0  0  0  0  0  0  0  0
    1.5430    2.7078   -1.5265 H   0  0  0  0  0  0  0  0  0  0  0  0
    3.6632    2.8801   -0.2962 H   0  0  0  0  0  0  0  0  0  0  0  0
    3.8600    1.9916   -1.8648 H   0  0  0  0  0  0  0  0  0  0  0  0
    5.9788    0.2037   -2.0030 H   0  0  0  0  0  0  0  0  0  0  0  0
    8.2813    0.1833   -0.6294 H   0  0  0  0  0  0  0  0  0  0  0  0
    7.9203    1.7938    1.4636 H   0  0  0  0  0  0  0  0  0  0  0  0
  1  2  2  0
  2  3  1  0
  3  4  2  0
  3  5  1  0
  5  6  1  0
  6  7  2  0
  7  8  1  0
  8  9  2  0
  9 10  1  0
 10 11  1  0
 11 12  2  0
 12 13  1  0
 13 14  2  0
 14 15  1  0
 14 16  1  0
 16 17  2  0
 17 18  1  0
  9 19  1  0
 19 20  2  0
 20 21  1  0
 21 22  2  0
 22 23  1  0
 23 24  2  0
 24 25  1  0
 25 26  1  0
 26 27  1  0
 27 28  2  0
 28 29  1  0
 29 30  2  0
 30 31  1  0
 24  6  1  0
 31 27  1  0
 22  8  1  0
 17 11  1  0
  1 32  1  0
  1 33  1  0
  2 34  1  0
  5 35  1  0
  7 36  1  0
 10 37  1  0
 12 38  1  0
 13 39  1  0
 16 40  1  0
 20 41  1  0
 23 42  1  0
 26 43  1  0
 26 44  1  0
 28 45  1  0
 29 46  1  0
 30 47  1  0
M  END
