
     RDKit          3D

 48 52  0  0  0  0  0  0  0  0999 V2000
   -1.7387   -3.3205   -0.6296 O   0  0  0  0  0  0  0  0  0  0  0  0
   -1.8997   -2.2179   -1.2192 C   0  0  0  0  0  0  0  0  0  0  0  0
   -3.0154   -2.0663   -2.2057 C   0  0  0  0  0  0  0  0  0  0  0  0
   -4.0444   -1.1893   -1.6564 N   0  0  0  0  0  0  0  0  0  0  0  0
   -4.1562    0.4546   -1.9173 S   0  0  0  0  0  0  0  0  0  0  0  0
   -5.4560    0.7617   -0.9163 C   0  0  0  0  0  0  0  0  0  0  0  0
   -6.1096    1.9570   -0.6363 C   0  0  0  0  0  0  0  0  0  0  0  0
   -7.1830    1.9196    0.2680 C   0  0  0  0  0  0  0  0  0  0  0  0
   -7.5710    0.7024    0.8656 C   0  0  0  0  0  0  0  0  0  0  0  0
   -6.8898   -0.4913    0.5653 C   0  0  0  0  0  0  0  0  0  0  0  0
   -5.8230   -0.4469   -0.3384 C   0  0  0  0  0  0  0  0  0  0  0  0
   -5.0153   -1.5230   -0.7605 C   0  0  0  0  0  0  0  0  0  0  0  0
   -5.1679   -2.7020   -0.3410 O   0  0  0  0  0  0  0  0  0  0  0  0
   -1.0197   -1.1133   -0.9602 N   0  0  0  0  0  0  0  0  0  0  0  0
   -0.1206   -1.0450    0.1597 C   0  0  0  0  0  0  0  0  0  0  0  0
   -0.4618   -1.6006    1.4049 C   0  0  0  0  0  0  0  0  0  0  0  0
    0.4200   -1.5128    2.4836 C   0  0  0  0  0  0  0  0  0  0  0  0
    1.6429   -0.8514    2.3408 C   0  0  0  0  0  0  0  0  0  0  0  0
    2.5010   -0.7867    3.3909 N   0  0  0  0  0  0  0  0  0  0  0  0
    3.6938   -0.1516    3.2802 C   0  0  0  0  0  0  0  0  0  0  0  0
    4.0438    0.4418    2.1114 N   0  0  0  0  0  0  0  0  0  0  0  0
    3.2297    0.4117    1.0206 C   0  0  0  0  0  0  0  0  0  0  0  0
    3.6296    1.1057   -0.1740 N   0  0  0  0  0  0  0  0  0  0  0  0
    5.0014    1.2575   -0.5789 C   0  0  0  0  0  0  0  0  0  0  0  0
    5.9729    0.2933   -0.2502 C   0  0  0  0  0  0  0  0  0  0  0  0
    7.2959    0.4524   -0.6735 C   0  0  0  0  0  0  0  0  0  0  0  0
    7.6593    1.5649   -1.4363 C   0  0  0  0  0  0  0  0  0  0  0  0
    6.6979    2.5185   -1.7842 C   0  0  0  0  0  0  0  0  0  0  0  0
    7.1927    4.0329   -2.8375 Br  0  0  0  0  0  0  0  0  0  0  0  0
    5.3728    2.3619   -1.3625 C   0  0  0  0  0  0  0  0  0  0  0  0
    1.9858   -0.2514    1.1086 C   0  0  0  0  0  0  0  0  0  0  0  0
    1.0964   -0.3594    0.0218 C   0  0  0  0  0  0  0  0  0  0  0  0
   -2.6185   -1.6356   -3.1496 H   0  0  0  0  0  0  0  0  0  0  0  0
   -3.4563   -3.0580   -2.4473 H   0  0  0  0  0  0  0  0  0  0  0  0
   -5.8009    2.8854   -1.0988 H   0  0  0  0  0  0  0  0  0  0  0  0
   -7.7149    2.8308    0.5088 H   0  0  0  0  0  0  0  0  0  0  0  0
   -8.3992    0.6866    1.5621 H   0  0  0  0  0  0  0  0  0  0  0  0
   -7.1896   -1.4228    1.0283 H   0  0  0  0  0  0  0  0  0  0  0  0
   -0.9905   -0.3400   -1.6629 H   0  0  0  0  0  0  0  0  0  0  0  0
   -1.4172   -2.0863    1.5516 H   0  0  0  0  0  0  0  0  0  0  0  0
    0.1476   -1.9559    3.4337 H   0  0  0  0  0  0  0  0  0  0  0  0
    4.3641   -0.1109    4.1276 H   0  0  0  0  0  0  0  0  0  0  0  0
    2.9034    1.6368   -0.7049 H   0  0  0  0  0  0  0  0  0  0  0  0
    5.7077   -0.5902    0.3154 H   0  0  0  0  0  0  0  0  0  0  0  0
    8.0386   -0.2915   -0.4161 H   0  0  0  0  0  0  0  0  0  0  0  0
    8.6849    1.6816   -1.7620 H   0  0  0  0  0  0  0  0  0  0  0  0
    4.6337    3.1040   -1.6375 H   0  0  0  0  0  0  0  0  0  0  0  0
    1.3434    0.0596   -0.9441 H   0  0  0  0  0  0  0  0  0  0  0  0
  1  2  2  0
  2  3  1  0
  3  4  1  0
  4  5  1  0
  5  6  1  0
  6  7  2  0
  7  8  1  0
  8  9  2  0
  9 10  1  0
 10 11  2  0
 11 12  1  0
 12 13  2  0
  2 14  1  0
 14 15  1  0
 15 16  2  0
 16 17  1  0
 17 18  2  0
 18 19  1  0
 19 20  2  0
 20 21  1  0
 21 22  2  0
 22 23  1  0
 23 24  1  0
 24 25  2  0
 25 26  1  0
 26 27  2  0
 27 28  1  0
 28 29  1  0
 28 30  2  0
 22 31  1  0
 31 32  2  0
 12  4  1  0
 32 15  1  0
 11  6  1  0
 31 18  1  0
 30 24  1  0
  3 33  1  0
  3 34  1  0
  7 35  1  0
  8 36  1  0
  9 37  1  0
 10 38  1  0
 14 39  1  0
 16 40  1  0
 17 41  1  0
 20 42  1  0
 23 43  1  0
 25 44  1  0
 26 45  1  0
 27 46  1  0
 30 47  1  0
 32 48  1  0
M  END
