MODEL 1
REMARK VINA RESULT:    -9.166      0.000      0.000
REMARK INTER + INTRA:         -11.196
REMARK INTER:                 -10.773
REMARK INTRA:                  -0.423
REMARK UNBOUND:                -0.423
REMARK  Name = 
REMARK  5 active torsions:
REMARK  status: ('A' for Active; 'I' for Inactive)
REMARK    1  A    between atoms: C_1  and  C_2
REMARK    2  A    between atoms: C_2  and  C_3
REMARK    3  A    between atoms: C_2  and  C_4
REMARK    4  A    between atoms: C_5  and  C_6
REMARK    5  A    between atoms: N_14  and  C_15
REMARK                            x       y       z     vdW  Elec       q    Type
REMARK                         _______ _______ _______ _____ _____    ______ ____
ROOT
ATOM      1  C   UNL     1      20.765   0.636  51.411  0.00  0.00    +0.000 A 
ATOM      2  C   UNL     1      19.768   0.195  52.272  0.00  0.00    +0.000 A 
ATOM      3  C   UNL     1      20.119  -0.453  53.463  0.00  0.00    +0.000 A 
ATOM      4  C   UNL     1      21.444  -0.646  53.830  0.00  0.00    +0.000 A 
ATOM      5  N   UNL     1      21.707  -1.266  54.984  0.00  0.00    +0.000 NA
ATOM      6  C   UNL     1      22.994  -1.411  55.309  0.00  0.00    +0.000 A 
ATOM      7  N   UNL     1      24.037  -0.972  54.600  0.00  0.00    +0.000 NA
ATOM      8  C   UNL     1      23.766  -0.332  53.447  0.00  0.00    +0.000 A 
ATOM      9  N   UNL     1      24.847   0.239  52.712  0.00  0.00    +0.000 N 
ATOM     10  C   UNL     1      22.452  -0.168  52.980  0.00  0.00    +0.000 A 
ATOM     11  C   UNL     1      22.102   0.439  51.752  0.00  0.00    +0.000 A 
ATOM     12  H   UNL     1      24.636   0.850  51.970  0.00  0.00    +0.000 HD
ENDROOT
BRANCH   9  13
ATOM     13  C   UNL     1      26.207  -0.029  52.993  0.00  0.00    +0.000 A 
ATOM     14  C   UNL     1      26.749  -1.295  52.723  0.00  0.00    +0.000 A 
ATOM     15  C   UNL     1      28.064  -1.603  53.070  0.00  0.00    +0.000 A 
ATOM     16  C   UNL     1      28.848  -0.638  53.688  0.00  0.00    +0.000 A 
ATOM     17  F   UNL     1      30.098  -0.961  54.050  0.00  0.00    +0.000 F 
ATOM     18  C   UNL     1      28.341   0.637  53.930  0.00  0.00    +0.000 A 
ATOM     19 CL   UNL     1      29.316   1.834  54.696  0.00  0.00    +0.000 Cl
ATOM     20  C   UNL     1      27.027   0.950  53.571  0.00  0.00    +0.000 A 
ENDBRANCH   9  13
BRANCH   1  22
ATOM     21  C   UNL     1      20.257   1.905  49.164  0.00  0.00    +0.000 C 
ATOM     22  C   UNL     1      20.450   1.325  50.199  0.00  0.00    +0.000 C 
BRANCH  21  24
ATOM     23  C   UNL     1      18.886   3.592  48.002  0.00  0.00    +0.000 C 
ATOM     24  C   UNL     1      20.048   2.609  47.886  0.00  0.00    +0.000 C 
ATOM     25  C   UNL     1      21.320   3.340  47.461  0.00  0.00    +0.000 C 
ENDBRANCH  21  24
ENDBRANCH   1  22
TORSDOF 3
ENDMDL
MODEL 2
REMARK VINA RESULT:    -8.684      4.310      5.746
REMARK INTER + INTRA:         -10.630
REMARK INTER:                 -10.536
REMARK INTRA:                  -0.095
REMARK UNBOUND:                -0.423
REMARK  Name = 
REMARK  5 active torsions:
REMARK  status: ('A' for Active; 'I' for Inactive)
REMARK    1  A    between atoms: C_1  and  C_2
REMARK    2  A    between atoms: C_2  and  C_3
REMARK    3  A    between atoms: C_2  and  C_4
REMARK    4  A    between atoms: C_5  and  C_6
REMARK    5  A    between atoms: N_14  and  C_15
REMARK                            x       y       z     vdW  Elec       q    Type
REMARK                         _______ _______ _______ _____ _____    ______ ____
ROOT
ATOM      1  C   UNL     1      22.536   0.243  52.641  0.00  0.00    +0.000 A 
ATOM      2  C   UNL     1      23.166  -0.577  53.568  0.00  0.00    +0.000 A 
ATOM      3  C   UNL     1      24.539  -0.429  53.804  0.00  0.00    +0.000 A 
ATOM      4  C   UNL     1      25.293   0.540  53.157  0.00  0.00    +0.000 A 
ATOM      5  N   UNL     1      26.597   0.630  53.435  0.00  0.00    +0.000 NA
ATOM      6  C   UNL     1      27.281   1.590  52.807  0.00  0.00    +0.000 A 
ATOM      7  N   UNL     1      26.776   2.480  51.948  0.00  0.00    +0.000 NA
ATOM      8  C   UNL     1      25.458   2.396  51.686  0.00  0.00    +0.000 A 
ATOM      9  N   UNL     1      24.863   3.389  50.852  0.00  0.00    +0.000 N 
ATOM     10  C   UNL     1      24.652   1.394  52.248  0.00  0.00    +0.000 A 
ATOM     11  C   UNL     1      23.277   1.213  51.968  0.00  0.00    +0.000 A 
ATOM     12  H   UNL     1      23.881   3.429  50.802  0.00  0.00    +0.000 HD
ENDROOT
BRANCH   9  13
ATOM     13  C   UNL     1      25.611   4.319  50.093  0.00  0.00    +0.000 A 
ATOM     14  C   UNL     1      26.718   3.891  49.343  0.00  0.00    +0.000 A 
ATOM     15  C   UNL     1      27.517   4.804  48.656  0.00  0.00    +0.000 A 
ATOM     16  C   UNL     1      27.207   6.156  48.713  0.00  0.00    +0.000 A 
ATOM     17  F   UNL     1      28.006   7.026  48.077  0.00  0.00    +0.000 F 
ATOM     18  C   UNL     1      26.090   6.597  49.420  0.00  0.00    +0.000 A 
ATOM     19 CL   UNL     1      25.707   8.276  49.488  0.00  0.00    +0.000 Cl
ATOM     20  C   UNL     1      25.282   5.681  50.099  0.00  0.00    +0.000 A 
ENDBRANCH   9  13
BRANCH   1  22
ATOM     21  C   UNL     1      19.941   0.091  52.245  0.00  0.00    +0.000 C 
ATOM     22  C   UNL     1      21.133   0.142  52.391  0.00  0.00    +0.000 C 
BRANCH  21  24
ATOM     23  C   UNL     1      18.097   0.068  50.610  0.00  0.00    +0.000 C 
ATOM     24  C   UNL     1      18.476   0.049  52.088  0.00  0.00    +0.000 C 
ATOM     25  C   UNL     1      17.898  -1.192  52.766  0.00  0.00    +0.000 C 
ENDBRANCH  21  24
ENDBRANCH   1  22
TORSDOF 3
ENDMDL
MODEL 3
REMARK VINA RESULT:    -8.338      4.163      5.872
REMARK INTER + INTRA:         -10.223
REMARK INTER:                 -10.070
REMARK INTRA:                  -0.154
REMARK UNBOUND:                -0.423
REMARK  Name = 
REMARK  5 active torsions:
REMARK  status: ('A' for Active; 'I' for Inactive)
REMARK    1  A    between atoms: C_1  and  C_2
REMARK    2  A    between atoms: C_2  and  C_3
REMARK    3  A    between atoms: C_2  and  C_4
REMARK    4  A    between atoms: C_5  and  C_6
REMARK    5  A    between atoms: N_14  and  C_15
REMARK                            x       y       z     vdW  Elec       q    Type
REMARK                         _______ _______ _______ _____ _____    ______ ____
ROOT
ATOM      1  C   UNL     1      21.789  -0.141  53.144  0.00  0.00    +0.000 A 
ATOM      2  C   UNL     1      22.550  -1.026  53.897  0.00  0.00    +0.000 A 
ATOM      3  C   UNL     1      23.909  -0.764  54.110  0.00  0.00    +0.000 A 
ATOM      4  C   UNL     1      24.521   0.380  53.613  0.00  0.00    +0.000 A 
ATOM      5  N   UNL     1      25.820   0.570  53.860  0.00  0.00    +0.000 NA
ATOM      6  C   UNL     1      26.364   1.693  53.383  0.00  0.00    +0.000 A 
ATOM      7  N   UNL     1      25.724   2.650  52.705  0.00  0.00    +0.000 NA
ATOM      8  C   UNL     1      24.411   2.460  52.475  0.00  0.00    +0.000 A 
ATOM      9  N   UNL     1      23.671   3.503  51.843  0.00  0.00    +0.000 N 
ATOM     10  C   UNL     1      23.746   1.293  52.885  0.00  0.00    +0.000 A 
ATOM     11  C   UNL     1      22.386   1.005  52.623  0.00  0.00    +0.000 A 
ATOM     12  H   UNL     1      22.689   3.439  51.833  0.00  0.00    +0.000 HD
ENDROOT
BRANCH   9  13
ATOM     13  C   UNL     1      24.275   4.625  51.230  0.00  0.00    +0.000 A 
ATOM     14  C   UNL     1      23.796   5.918  51.493  0.00  0.00    +0.000 A 
ATOM     15  C   UNL     1      24.325   7.028  50.836  0.00  0.00    +0.000 A 
ATOM     16  C   UNL     1      25.344   6.848  49.910  0.00  0.00    +0.000 A 
ATOM     17  F   UNL     1      25.817   7.921  49.259  0.00  0.00    +0.000 F 
ATOM     18  C   UNL     1      25.860   5.578  49.664  0.00  0.00    +0.000 A 
ATOM     19 CL   UNL     1      27.126   5.358  48.515  0.00  0.00    +0.000 Cl
ATOM     20  C   UNL     1      25.339   4.466  50.332  0.00  0.00    +0.000 A 
ENDBRANCH   9  13
BRANCH   1  22
ATOM     21  C   UNL     1      19.206  -0.508  52.807  0.00  0.00    +0.000 C 
ATOM     22  C   UNL     1      20.393  -0.359  52.926  0.00  0.00    +0.000 C 
BRANCH  21  24
ATOM     23  C   UNL     1      17.303  -0.423  51.243  0.00  0.00    +0.000 C 
ATOM     24  C   UNL     1      17.747  -0.670  52.681  0.00  0.00    +0.000 C 
ATOM     25  C   UNL     1      17.320  -2.065  53.135  0.00  0.00    +0.000 C 
ENDBRANCH  21  24
ENDBRANCH   1  22
TORSDOF 3
ENDMDL
MODEL 4
REMARK VINA RESULT:    -8.273      1.759      2.366
REMARK INTER + INTRA:         -10.147
REMARK INTER:                  -9.995
REMARK INTRA:                  -0.152
REMARK UNBOUND:                -0.423
REMARK  Name = 
REMARK  5 active torsions:
REMARK  status: ('A' for Active; 'I' for Inactive)
REMARK    1  A    between atoms: C_1  and  C_2
REMARK    2  A    between atoms: C_2  and  C_3
REMARK    3  A    between atoms: C_2  and  C_4
REMARK    4  A    between atoms: C_5  and  C_6
REMARK    5  A    between atoms: N_14  and  C_15
REMARK                            x       y       z     vdW  Elec       q    Type
REMARK                         _______ _______ _______ _____ _____    ______ ____
ROOT
ATOM      1  C   UNL     1      22.011   2.235  50.721  0.00  0.00    +0.000 A 
ATOM      2  C   UNL     1      20.830   1.754  51.273  0.00  0.00    +0.000 A 
ATOM      3  C   UNL     1      20.882   0.822  52.318  0.00  0.00    +0.000 A 
ATOM      4  C   UNL     1      22.088   0.381  52.846  0.00  0.00    +0.000 A 
ATOM      5  N   UNL     1      22.064  -0.503  53.847  0.00  0.00    +0.000 NA
ATOM      6  C   UNL     1      23.245  -0.885  54.341  0.00  0.00    +0.000 A 
ATOM      7  N   UNL     1      24.442  -0.445  53.942  0.00  0.00    +0.000 NA
ATOM      8  C   UNL     1      24.459   0.459  52.945  0.00  0.00    +0.000 A 
ATOM      9  N   UNL     1      25.710   1.027  52.559  0.00  0.00    +0.000 N 
ATOM     10  C   UNL     1      23.281   0.893  52.316  0.00  0.00    +0.000 A 
ATOM     11  C   UNL     1      23.233   1.793  51.226  0.00  0.00    +0.000 A 
ATOM     12  H   UNL     1      25.703   1.807  51.958  0.00  0.00    +0.000 HD
ENDROOT
BRANCH   9  13
ATOM     13  C   UNL     1      26.959   0.526  52.994  0.00  0.00    +0.000 A 
ATOM     14  C   UNL     1      27.946   1.405  53.466  0.00  0.00    +0.000 A 
ATOM     15  C   UNL     1      29.212   0.940  53.822  0.00  0.00    +0.000 A 
ATOM     16  C   UNL     1      29.494  -0.414  53.710  0.00  0.00    +0.000 A 
ATOM     17  F   UNL     1      30.727  -0.841  54.020  0.00  0.00    +0.000 F 
ATOM     18  C   UNL     1      28.516  -1.308  53.280  0.00  0.00    +0.000 A 
ATOM     19 CL   UNL     1      28.869  -2.990  53.143  0.00  0.00    +0.000 Cl
ATOM     20  C   UNL     1      27.243  -0.844  52.935  0.00  0.00    +0.000 A 
ENDBRANCH   9  13
BRANCH   1  22
ATOM     21  C   UNL     1      22.039   4.062  48.830  0.00  0.00    +0.000 C 
ATOM     22  C   UNL     1      22.001   3.205  49.672  0.00  0.00    +0.000 C 
BRANCH  21  24
ATOM     23  C   UNL     1      23.417   5.902  47.940  0.00  0.00    +0.000 C 
ATOM     24  C   UNL     1      22.111   5.123  47.810  0.00  0.00    +0.000 C 
ATOM     25  C   UNL     1      21.986   4.531  46.407  0.00  0.00    +0.000 C 
ENDBRANCH  21  24
ENDBRANCH   1  22
TORSDOF 3
ENDMDL
MODEL 5
REMARK VINA RESULT:    -8.247      4.769      7.912
REMARK INTER + INTRA:         -10.117
REMARK INTER:                  -9.630
REMARK INTRA:                  -0.486
REMARK UNBOUND:                -0.423
REMARK  Name = 
REMARK  5 active torsions:
REMARK  status: ('A' for Active; 'I' for Inactive)
REMARK    1  A    between atoms: C_1  and  C_2
REMARK    2  A    between atoms: C_2  and  C_3
REMARK    3  A    between atoms: C_2  and  C_4
REMARK    4  A    between atoms: C_5  and  C_6
REMARK    5  A    between atoms: N_14  and  C_15
REMARK                            x       y       z     vdW  Elec       q    Type
REMARK                         _______ _______ _______ _____ _____    ______ ____
ROOT
ATOM      1  C   UNL     1      25.138   0.420  53.149  0.00  0.00    +0.000 A 
ATOM      2  C   UNL     1      24.031  -0.325  53.535  0.00  0.00    +0.000 A 
ATOM      3  C   UNL     1      22.744   0.189  53.329  0.00  0.00    +0.000 A 
ATOM      4  C   UNL     1      22.535   1.418  52.718  0.00  0.00    +0.000 A 
ATOM      5  N   UNL     1      21.280   1.843  52.547  0.00  0.00    +0.000 NA
ATOM      6  C   UNL     1      21.123   3.020  51.935  0.00  0.00    +0.000 A 
ATOM      7  N   UNL     1      22.102   3.795  51.459  0.00  0.00    +0.000 NA
ATOM      8  C   UNL     1      23.363   3.352  51.620  0.00  0.00    +0.000 A 
ATOM      9  N   UNL     1      24.429   4.102  51.038  0.00  0.00    +0.000 N 
ATOM     10  C   UNL     1      23.650   2.155  52.293  0.00  0.00    +0.000 A 
ATOM     11  C   UNL     1      24.952   1.664  52.548  0.00  0.00    +0.000 A 
ATOM     12  H   UNL     1      25.323   3.692  51.004  0.00  0.00    +0.000 HD
ENDROOT
BRANCH   9  13
ATOM     13  C   UNL     1      24.267   5.403  50.508  0.00  0.00    +0.000 A 
ATOM     14  C   UNL     1      24.263   6.518  51.361  0.00  0.00    +0.000 A 
ATOM     15  C   UNL     1      24.022   7.800  50.868  0.00  0.00    +0.000 A 
ATOM     16  C   UNL     1      23.787   7.972  49.510  0.00  0.00    +0.000 A 
ATOM     17  F   UNL     1      23.520   9.206  49.057  0.00  0.00    +0.000 F 
ATOM     18  C   UNL     1      23.825   6.884  48.642  0.00  0.00    +0.000 A 
ATOM     19 CL   UNL     1      23.534   7.101  46.957  0.00  0.00    +0.000 Cl
ATOM     20  C   UNL     1      24.079   5.601  49.134  0.00  0.00    +0.000 A 
ENDBRANCH   9  13
BRANCH   1  22
ATOM     21  C   UNL     1      27.575  -0.493  53.533  0.00  0.00    +0.000 C 
ATOM     22  C   UNL     1      26.467  -0.079  53.318  0.00  0.00    +0.000 C 
BRANCH  21  24
ATOM     23  C   UNL     1      29.150  -2.346  53.135  0.00  0.00    +0.000 C 
ATOM     24  C   UNL     1      28.926  -1.003  53.825  0.00  0.00    +0.000 C 
ATOM     25  C   UNL     1      29.988   0.002  53.384  0.00  0.00    +0.000 C 
ENDBRANCH  21  24
ENDBRANCH   1  22
TORSDOF 3
ENDMDL
MODEL 6
REMARK VINA RESULT:    -8.170      4.499      5.978
REMARK INTER + INTRA:         -10.025
REMARK INTER:                 -10.055
REMARK INTRA:                   0.029
REMARK UNBOUND:                -0.423
REMARK  Name = 
REMARK  5 active torsions:
REMARK  status: ('A' for Active; 'I' for Inactive)
REMARK    1  A    between atoms: C_1  and  C_2
REMARK    2  A    between atoms: C_2  and  C_3
REMARK    3  A    between atoms: C_2  and  C_4
REMARK    4  A    between atoms: C_5  and  C_6
REMARK    5  A    between atoms: N_14  and  C_15
REMARK                            x       y       z     vdW  Elec       q    Type
REMARK                         _______ _______ _______ _____ _____    ______ ____
ROOT
ATOM      1  C   UNL     1      25.179   5.628  48.810  0.00  0.00    +0.000 A 
ATOM      2  C   UNL     1      23.817   5.556  48.546  0.00  0.00    +0.000 A 
ATOM      3  C   UNL     1      23.049   4.545  49.138  0.00  0.00    +0.000 A 
ATOM      4  C   UNL     1      23.604   3.620  50.012  0.00  0.00    +0.000 A 
ATOM      5  N   UNL     1      22.810   2.687  50.546  0.00  0.00    +0.000 NA
ATOM      6  C   UNL     1      23.380   1.830  51.398  0.00  0.00    +0.000 A 
ATOM      7  N   UNL     1      24.659   1.838  51.782  0.00  0.00    +0.000 NA
ATOM      8  C   UNL     1      25.449   2.792  51.254  0.00  0.00    +0.000 A 
ATOM      9  N   UNL     1      26.796   2.895  51.714  0.00  0.00    +0.000 N 
ATOM     10  C   UNL     1      24.971   3.713  50.309  0.00  0.00    +0.000 A 
ATOM     11  C   UNL     1      25.760   4.699  49.672  0.00  0.00    +0.000 A 
ATOM     12  H   UNL     1      27.316   3.692  51.462  0.00  0.00    +0.000 HD
ENDROOT
BRANCH   9  13
ATOM     13  C   UNL     1      27.422   1.911  52.514  0.00  0.00    +0.000 A 
ATOM     14  C   UNL     1      28.359   2.286  53.491  0.00  0.00    +0.000 A 
ATOM     15  C   UNL     1      29.048   1.326  54.231  0.00  0.00    +0.000 A 
ATOM     16  C   UNL     1      28.797  -0.020  54.000  0.00  0.00    +0.000 A 
ATOM     17  F   UNL     1      29.494  -0.931  54.694  0.00  0.00    +0.000 F 
ATOM     18  C   UNL     1      27.844  -0.411  53.063  0.00  0.00    +0.000 A 
ATOM     19 CL   UNL     1      27.534  -2.082  52.778  0.00  0.00    +0.000 Cl
ATOM     20  C   UNL     1      27.144   0.550  52.329  0.00  0.00    +0.000 A 
ENDBRANCH   9  13
BRANCH   1  22
ATOM     21  C   UNL     1      26.720   7.474  47.746  0.00  0.00    +0.000 C 
ATOM     22  C   UNL     1      25.993   6.659  48.247  0.00  0.00    +0.000 C 
BRANCH  21  24
ATOM     23  C   UNL     1      27.871   9.632  48.049  0.00  0.00    +0.000 C 
ATOM     24  C   UNL     1      27.625   8.451  47.115  0.00  0.00    +0.000 C 
ATOM     25  C   UNL     1      28.949   7.791  46.736  0.00  0.00    +0.000 C 
ENDBRANCH  21  24
ENDBRANCH   1  22
TORSDOF 3
ENDMDL
MODEL 7
REMARK VINA RESULT:    -8.141      5.068      7.454
REMARK INTER + INTRA:          -9.992
REMARK INTER:                  -9.825
REMARK INTRA:                  -0.167
REMARK UNBOUND:                -0.423
REMARK  Name = 
REMARK  5 active torsions:
REMARK  status: ('A' for Active; 'I' for Inactive)
REMARK    1  A    between atoms: C_1  and  C_2
REMARK    2  A    between atoms: C_2  and  C_3
REMARK    3  A    between atoms: C_2  and  C_4
REMARK    4  A    between atoms: C_5  and  C_6
REMARK    5  A    between atoms: N_14  and  C_15
REMARK                            x       y       z     vdW  Elec       q    Type
REMARK                         _______ _______ _______ _____ _____    ______ ____
ROOT
ATOM      1  C   UNL     1      25.996   2.514  51.071  0.00  0.00    +0.000 A 
ATOM      2  C   UNL     1      26.858   1.772  51.868  0.00  0.00    +0.000 A 
ATOM      3  C   UNL     1      26.336   0.837  52.770  0.00  0.00    +0.000 A 
ATOM      4  C   UNL     1      24.971   0.603  52.876  0.00  0.00    +0.000 A 
ATOM      5  N   UNL     1      24.543  -0.309  53.753  0.00  0.00    +0.000 NA
ATOM      6  C   UNL     1      23.225  -0.518  53.808  0.00  0.00    +0.000 A 
ATOM      7  N   UNL     1      22.303   0.082  53.049  0.00  0.00    +0.000 NA
ATOM      8  C   UNL     1      22.743   0.987  52.155  0.00  0.00    +0.000 A 
ATOM      9  N   UNL     1      21.800   1.576  51.259  0.00  0.00    +0.000 N 
ATOM     10  C   UNL     1      24.101   1.325  52.046  0.00  0.00    +0.000 A 
ATOM     11  C   UNL     1      24.621   2.307  51.172  0.00  0.00    +0.000 A 
ATOM     12  H   UNL     1      22.143   2.098  50.499  0.00  0.00    +0.000 HD
ENDROOT
BRANCH   9  13
ATOM     13  C   UNL     1      20.400   1.447  51.408  0.00  0.00    +0.000 A 
ATOM     14  C   UNL     1      19.796   0.181  51.347  0.00  0.00    +0.000 A 
ATOM     15  C   UNL     1      18.410   0.042  51.408  0.00  0.00    +0.000 A 
ATOM     16  C   UNL     1      17.619   1.175  51.536  0.00  0.00    +0.000 A 
ATOM     17  F   UNL     1      16.286   1.028  51.556  0.00  0.00    +0.000 F 
ATOM     18  C   UNL     1      18.200   2.437  51.637  0.00  0.00    +0.000 A 
ATOM     19 CL   UNL     1      17.215   3.842  51.797  0.00  0.00    +0.000 Cl
ATOM     20  C   UNL     1      19.590   2.576  51.588  0.00  0.00    +0.000 A 
ENDBRANCH   9  13
BRANCH   1  22
ATOM     21  C   UNL     1      26.854   4.301  49.343  0.00  0.00    +0.000 C 
ATOM     22  C   UNL     1      26.490   3.459  50.119  0.00  0.00    +0.000 C 
BRANCH  21  24
ATOM     23  C   UNL     1      26.723   6.708  48.829  0.00  0.00    +0.000 C 
ATOM     24  C   UNL     1      27.285   5.354  48.407  0.00  0.00    +0.000 C 
ATOM     25  C   UNL     1      28.810   5.414  48.330  0.00  0.00    +0.000 C 
ENDBRANCH  21  24
ENDBRANCH   1  22
TORSDOF 3
ENDMDL
MODEL 8
REMARK VINA RESULT:    -8.023      4.455      8.355
REMARK INTER + INTRA:          -9.853
REMARK INTER:                 -10.004
REMARK INTRA:                   0.151
REMARK UNBOUND:                -0.423
REMARK  Name = 
REMARK  5 active torsions:
REMARK  status: ('A' for Active; 'I' for Inactive)
REMARK    1  A    between atoms: C_1  and  C_2
REMARK    2  A    between atoms: C_2  and  C_3
REMARK    3  A    between atoms: C_2  and  C_4
REMARK    4  A    between atoms: C_5  and  C_6
REMARK    5  A    between atoms: N_14  and  C_15
REMARK                            x       y       z     vdW  Elec       q    Type
REMARK                         _______ _______ _______ _____ _____    ______ ____
ROOT
ATOM      1  C   UNL     1      26.060   1.329  51.926  0.00  0.00    +0.000 A 
ATOM      2  C   UNL     1      26.418   2.538  51.343  0.00  0.00    +0.000 A 
ATOM      3  C   UNL     1      25.423   3.383  50.835  0.00  0.00    +0.000 A 
ATOM      4  C   UNL     1      24.075   3.064  50.923  0.00  0.00    +0.000 A 
ATOM      5  N   UNL     1      23.179   3.920  50.423  0.00  0.00    +0.000 NA
ATOM      6  C   UNL     1      21.892   3.584  50.547  0.00  0.00    +0.000 A 
ATOM      7  N   UNL     1      21.422   2.486  51.145  0.00  0.00    +0.000 NA
ATOM      8  C   UNL     1      22.329   1.636  51.662  0.00  0.00    +0.000 A 
ATOM      9  N   UNL     1      21.863   0.504  52.394  0.00  0.00    +0.000 N 
ATOM     10  C   UNL     1      23.709   1.861  51.544  0.00  0.00    +0.000 A 
ATOM     11  C   UNL     1      24.713   0.981  52.010  0.00  0.00    +0.000 A 
ATOM     12  H   UNL     1      22.517  -0.016  52.916  0.00  0.00    +0.000 HD
ENDROOT
BRANCH   9  13
ATOM     13  C   UNL     1      20.511   0.089  52.410  0.00  0.00    +0.000 A 
ATOM     14  C   UNL     1      19.997  -0.604  53.518  0.00  0.00    +0.000 A 
ATOM     15  C   UNL     1      18.692  -1.093  53.517  0.00  0.00    +0.000 A 
ATOM     16  C   UNL     1      17.888  -0.884  52.404  0.00  0.00    +0.000 A 
ATOM     17  F   UNL     1      16.647  -1.393  52.404  0.00  0.00    +0.000 F 
ATOM     18  C   UNL     1      18.366  -0.166  51.311  0.00  0.00    +0.000 A 
ATOM     19 CL   UNL     1      17.367   0.092  49.931  0.00  0.00    +0.000 Cl
ATOM     20  C   UNL     1      19.671   0.335  51.316  0.00  0.00    +0.000 A 
ENDBRANCH   9  13
BRANCH   1  22
ATOM     21  C   UNL     1      27.864  -0.250  53.008  0.00  0.00    +0.000 C 
ATOM     22  C   UNL     1      27.042   0.451  52.480  0.00  0.00    +0.000 C 
BRANCH  21  24
ATOM     23  C   UNL     1      28.843  -2.509  53.105  0.00  0.00    +0.000 C 
ATOM     24  C   UNL     1      28.863  -1.097  53.683  0.00  0.00    +0.000 C 
ATOM     25  C   UNL     1      30.259  -0.491  53.551  0.00  0.00    +0.000 C 
ENDBRANCH  21  24
ENDBRANCH   1  22
TORSDOF 3
ENDMDL
MODEL 9
REMARK VINA RESULT:    -7.941      2.018      4.066
REMARK INTER + INTRA:          -9.756
REMARK INTER:                  -9.703
REMARK INTRA:                  -0.053
REMARK UNBOUND:                -0.423
REMARK  Name = 
REMARK  5 active torsions:
REMARK  status: ('A' for Active; 'I' for Inactive)
REMARK    1  A    between atoms: C_1  and  C_2
REMARK    2  A    between atoms: C_2  and  C_3
REMARK    3  A    between atoms: C_2  and  C_4
REMARK    4  A    between atoms: C_5  and  C_6
REMARK    5  A    between atoms: N_14  and  C_15
REMARK                            x       y       z     vdW  Elec       q    Type
REMARK                         _______ _______ _______ _____ _____    ______ ____
ROOT
ATOM      1  C   UNL     1      20.842   1.185  51.838  0.00  0.00    +0.000 A 
ATOM      2  C   UNL     1      20.550   2.291  51.051  0.00  0.00    +0.000 A 
ATOM      3  C   UNL     1      21.592   3.097  50.575  0.00  0.00    +0.000 A 
ATOM      4  C   UNL     1      22.924   2.807  50.842  0.00  0.00    +0.000 A 
ATOM      5  N   UNL     1      23.867   3.615  50.350  0.00  0.00    +0.000 NA
ATOM      6  C   UNL     1      25.135   3.287  50.612  0.00  0.00    +0.000 A 
ATOM      7  N   UNL     1      25.544   2.215  51.297  0.00  0.00    +0.000 NA
ATOM      8  C   UNL     1      24.589   1.395  51.774  0.00  0.00    +0.000 A 
ATOM      9  N   UNL     1      24.987   0.189  52.424  0.00  0.00    +0.000 N 
ATOM     10  C   UNL     1      23.223   1.669  51.605  0.00  0.00    +0.000 A 
ATOM     11  C   UNL     1      22.171   0.883  52.132  0.00  0.00    +0.000 A 
ATOM     12  H   UNL     1      24.298  -0.487  52.616  0.00  0.00    +0.000 HD
ENDROOT
BRANCH   9  13
ATOM     13  C   UNL     1      26.320  -0.085  52.808  0.00  0.00    +0.000 A 
ATOM     14  C   UNL     1      26.852  -1.374  52.646  0.00  0.00    +0.000 A 
ATOM     15  C   UNL     1      28.136  -1.683  53.094  0.00  0.00    +0.000 A 
ATOM     16  C   UNL     1      28.898  -0.698  53.706  0.00  0.00    +0.000 A 
ATOM     17  F   UNL     1      30.116  -1.021  54.165  0.00  0.00    +0.000 F 
ATOM     18  C   UNL     1      28.404   0.597  53.842  0.00  0.00    +0.000 A 
ATOM     19 CL   UNL     1      29.352   1.820  54.601  0.00  0.00    +0.000 Cl
ATOM     20  C   UNL     1      27.122   0.912  53.382  0.00  0.00    +0.000 A 
ENDBRANCH   9  13
BRANCH   1  22
ATOM     21  C   UNL     1      18.962  -0.385  52.797  0.00  0.00    +0.000 C 
ATOM     22  C   UNL     1      19.810   0.322  52.321  0.00  0.00    +0.000 C 
BRANCH  21  24
ATOM     23  C   UNL     1      16.766  -1.445  52.437  0.00  0.00    +0.000 C 
ATOM     24  C   UNL     1      17.927  -1.240  53.405  0.00  0.00    +0.000 C 
ATOM     25  C   UNL     1      18.517  -2.587  53.819  0.00  0.00    +0.000 C 
ENDBRANCH  21  24
ENDBRANCH   1  22
TORSDOF 3
ENDMDL
