REMARK  Name = 
REMARK  22 active torsions:
REMARK  status: ('A' for Active; 'I' for Inactive)
REMARK    1  A    between atoms: C_1  and  C_2
REMARK    2  A    between atoms: C_2  and  C_3
REMARK    3  A    between atoms: C_3  and  C_4
REMARK    4  A    between atoms: C_4  and  C_5
REMARK    5  A    between atoms: C_5  and  C_6
REMARK    6  A    between atoms: C_6  and  C_7
REMARK    7  A    between atoms: C_7  and  C_8
REMARK    8  A    between atoms: C_8  and  C_9
REMARK    9  A    between atoms: C_9  and  C_10
REMARK   10  A    between atoms: C_10  and  C_11
REMARK   11  A    between atoms: C_11  and  C_12
REMARK   12  A    between atoms: C_12  and  C_13
REMARK   13  A    between atoms: C_13  and  C_14
REMARK   14  A    between atoms: C_14  and  C_15
REMARK   15  A    between atoms: C_15  and  C_16
REMARK   16  A    between atoms: C_16  and  O_17
REMARK   17  A    between atoms: O_17  and  C_18
REMARK   18  A    between atoms: C_18  and  C_20
REMARK   19  A    between atoms: C_20  and  O_21
REMARK   20  A    between atoms: O_21  and  C_22
REMARK   21  A    between atoms: C_24  and  O_25
REMARK   22  A    between atoms: C_30  and  C_31
REMARK                            x       y       z     vdW  Elec       q    Type
REMARK                         _______ _______ _______ _____ _____    ______ ____
ROOT
ATOM      1  C   UNL     1      -3.524  14.582   2.769  0.00  0.00    +0.000 C 
ENDROOT
BRANCH   1   2
ATOM      2  C   UNL     1      -4.015  13.352   2.029  0.00  0.00    +0.000 C 
ATOM      3  O   UNL     1      -3.667  13.037   0.898  0.00  0.00    +0.000 OA
BRANCH   2   4
ATOM      4  O   UNL     1      -4.870  12.644   2.829  0.00  0.00    +0.000 OA
BRANCH   4   5
ATOM      5  C   UNL     1      -5.326  11.385   2.319  0.00  0.00    +0.000 C 
BRANCH   5   6
ATOM      6  C   UNL     1      -5.044  10.298   3.356  0.00  0.00    +0.000 C 
BRANCH   6   7
ATOM      7  C   UNL     1      -5.512   8.919   2.885  0.00  0.00    +0.000 C 
BRANCH   7   8
ATOM      8  C   UNL     1      -4.844   8.451   1.586  0.00  0.00    +0.000 C 
BRANCH   8   9
ATOM      9  C   UNL     1      -3.318   8.325   1.684  0.00  0.00    +0.000 C 
BRANCH   9  10
ATOM     10  C   UNL     1      -2.851   7.319   2.739  0.00  0.00    +0.000 C 
BRANCH  10  11
ATOM     11  C   UNL     1      -3.357   5.914   2.426  0.00  0.00    +0.000 C 
BRANCH  11  12
ATOM     12  C   UNL     1      -2.951   4.913   3.495  0.00  0.00    +0.000 C 
BRANCH  12  13
ATOM     13  C   UNL     1      -3.468   3.526   3.123  0.00  0.00    +0.000 C 
BRANCH  13  14
ATOM     14  C   UNL     1      -3.076   2.502   4.184  0.00  0.00    +0.000 C 
BRANCH  14  15
ATOM     15  C   UNL     1      -3.575   1.112   3.800  0.00  0.00    +0.000 C 
BRANCH  15  16
ATOM     16  C   UNL     1      -3.169   0.090   4.858  0.00  0.00    +0.000 C 
BRANCH  16  17
ATOM     17  C   UNL     1      -3.657  -1.309   4.490  0.00  0.00    +0.000 C 
BRANCH  17  18
ATOM     18  C   UNL     1      -3.246  -2.326   5.553  0.00  0.00    +0.000 C 
BRANCH  18  20
ATOM     19  C   UNL     1      -3.329  -4.739   6.257  0.00  0.00    +0.000 C 
ATOM     20  C   UNL     1      -3.740  -3.727   5.200  0.00  0.00    +0.000 C 
ENDBRANCH  18  20
ENDBRANCH  17  18
ENDBRANCH  16  17
ENDBRANCH  15  16
ENDBRANCH  14  15
ENDBRANCH  13  14
ENDBRANCH  12  13
ENDBRANCH  11  12
ENDBRANCH  10  11
ENDBRANCH   9  10
ENDBRANCH   8   9
ENDBRANCH   7   8
ENDBRANCH   6   7
ENDBRANCH   5   6
ENDBRANCH   4   5
ENDBRANCH   2   4
ENDBRANCH   1   2
BRANCH   1  21
ATOM     21  O   UNL     1      -4.233  15.779   2.457  0.00  0.00    +0.000 OA
BRANCH  21  22
ATOM     22  C   UNL     1      -3.807  16.882   3.158  0.00  0.00    +0.000 A 
ATOM     23  C   UNL     1      -3.927  18.120   2.518  0.00  0.00    +0.000 A 
ATOM     24  C   UNL     1      -3.495  19.288   3.161  0.00  0.00    +0.000 A 
ATOM     25  C   UNL     1      -2.963  19.231   4.454  0.00  0.00    +0.000 A 
ATOM     26  C   UNL     1      -2.463  20.416   5.186  0.00  0.00    +0.000 A 
ATOM     27  O   UNL     1      -2.323  21.531   4.700  0.00  0.00    +0.000 OA
ATOM     28  C   UNL     1      -2.122  20.210   6.603  0.00  0.00    +0.000 A 
ATOM     29  C   UNL     1      -2.161  18.979   7.124  0.00  0.00    +0.000 A 
ATOM     30  O   UNL     1      -2.476  17.846   6.402  0.00  0.00    +0.000 OA
ATOM     31  C   UNL     1      -2.907  18.002   5.106  0.00  0.00    +0.000 A 
ATOM     32  C   UNL     1      -3.319  16.835   4.464  0.00  0.00    +0.000 A 
BRANCH  29  33
ATOM     33  C   UNL     1      -1.894  18.772   8.514  0.00  0.00    +0.000 A 
ATOM     34  C   UNL     1      -2.149  19.618   9.585  0.00  0.00    +0.000 A 
ATOM     35  C   UNL     1      -1.720  19.095  10.837  0.00  0.00    +0.000 A 
ATOM     36  C   UNL     1      -1.162  17.847  10.704  0.00  0.00    +0.000 A 
ATOM     37  S   UNL     1      -1.166  17.312   9.082  0.00  0.00    +0.000 S 
ENDBRANCH  29  33
BRANCH  24  38
ATOM     38  O   UNL     1      -3.619  20.487   2.519  0.00  0.00    +0.000 OA
ATOM     39  H   UNL     1      -3.975  20.521   1.654  0.00  0.00    +0.000 HD
ENDBRANCH  24  38
ENDBRANCH  21  22
ENDBRANCH   1  21
TORSDOF 21
