MODEL 1
REMARK VINA RESULT:    -9.358      0.000      0.000
REMARK INTER + INTRA:         -14.217
REMARK INTER:                 -12.641
REMARK INTRA:                  -1.576
REMARK UNBOUND:                -1.576
REMARK  Name = 
REMARK  6 active torsions:
REMARK  status: ('A' for Active; 'I' for Inactive)
REMARK    1  A    between atoms: C_11  and  N_12
REMARK    2  A    between atoms: N_12  and  C_13
REMARK    3  A    between atoms: N_23  and  C_24
REMARK    4  A    between atoms: C_24  and  C_25
REMARK    5  A    between atoms: C_25  and  C_26
REMARK    6  A    between atoms: C_26  and  N_27
REMARK                            x       y       z     vdW  Elec       q    Type
REMARK                         _______ _______ _______ _____ _____    ______ ____
ROOT
ATOM      1  O   UNL     1      19.021   2.214  48.872  0.00  0.00    +0.000 OA
ATOM      2  C   UNL     1      19.336   1.775  49.981  0.00  0.00    +0.000 C 
ATOM      3  C   UNL     1      18.321   1.613  51.106  0.00  0.00    +0.000 C 
ATOM      4  O   UNL     1      18.542   0.596  52.065  0.00  0.00    +0.000 OA
ATOM      5  C   UNL     1      19.862   0.370  52.342  0.00  0.00    +0.000 A 
ATOM      6  C   UNL     1      20.136  -0.381  53.490  0.00  0.00    +0.000 A 
ATOM      7  C   UNL     1      21.441  -0.655  53.912  0.00  0.00    +0.000 A 
ATOM      8  N   UNL     1      21.621  -1.328  55.044  0.00  0.00    +0.000 NA
ATOM      9  C   UNL     1      22.890  -1.526  55.441  0.00  0.00    +0.000 A 
ATOM     10  N   UNL     1      24.000  -1.081  54.838  0.00  0.00    +0.000 NA
ATOM     11  C   UNL     1      23.829  -0.442  53.671  0.00  0.00    +0.000 A 
ATOM     12  C   UNL     1      22.519  -0.213  53.138  0.00  0.00    +0.000 A 
ATOM     13  C   UNL     1      22.212   0.446  51.921  0.00  0.00    +0.000 A 
ATOM     14  C   UNL     1      20.912   0.834  51.562  0.00  0.00    +0.000 A 
ATOM     15  N   UNL     1      20.670   1.649  50.413  0.00  0.00    +0.000 N 
ENDROOT
BRANCH  11  16
ATOM     16  N   UNL     1      24.957   0.110  53.004  0.00  0.00    +0.000 N 
ATOM     17  H   UNL     1      24.730   0.767  52.308  0.00  0.00    +0.000 HD
BRANCH  16  18
ATOM     18  C   UNL     1      26.345  -0.112  53.158  0.00  0.00    +0.000 A 
ATOM     19  C   UNL     1      27.016  -1.304  52.859  0.00  0.00    +0.000 A 
ATOM     20  C   UNL     1      28.379  -1.475  53.176  0.00  0.00    +0.000 A 
ATOM     21  C   UNL     1      29.076  -0.477  53.856  0.00  0.00    +0.000 A 
ATOM     22  C   UNL     1      28.427   0.713  54.134  0.00  0.00    +0.000 A 
ATOM     23  F   UNL     1      29.076   1.688  54.784  0.00  0.00    +0.000 F 
ATOM     24  C   UNL     1      27.095   0.909  53.771  0.00  0.00    +0.000 A 
ENDBRANCH  16  18
ENDBRANCH  11  16
BRANCH  15  25
ATOM     25  C   UNL     1      21.367   2.939  50.333  0.00  0.00    +0.000 C 
BRANCH  25  26
ATOM     26  C   UNL     1      20.962   4.106  51.219  0.00  0.00    +0.000 C 
BRANCH  26  27
ATOM     27  C   UNL     1      21.856   5.343  51.132  0.00  0.00    +0.000 C 
BRANCH  27  28
ATOM     28  N   UNL     1      23.196   5.250  51.668  0.00  0.00    +0.000 N 
ATOM     29  C   UNL     1      24.287   5.015  50.731  0.00  0.00    +0.000 C 
ATOM     30  C   UNL     1      24.853   3.598  50.818  0.00  0.00    +0.000 C 
ATOM     31  O   UNL     1      25.326   3.344  52.142  0.00  0.00    +0.000 OA
ATOM     32  C   UNL     1      24.246   3.385  53.084  0.00  0.00    +0.000 C 
ATOM     33  C   UNL     1      23.387   4.666  52.995  0.00  0.00    +0.000 C 
ATOM     34  H   UNL     1      23.291   6.244  51.879  0.00  0.00    +0.000 HD
ENDBRANCH  27  28
ENDBRANCH  26  27
ENDBRANCH  25  26
ENDBRANCH  15  25
TORSDOF 6
ENDMDL
MODEL 2
REMARK VINA RESULT:    -9.188      2.533      5.844
REMARK INTER + INTRA:         -13.986
REMARK INTER:                 -12.828
REMARK INTRA:                  -1.158
REMARK UNBOUND:                -1.576
REMARK  Name = 
REMARK  6 active torsions:
REMARK  status: ('A' for Active; 'I' for Inactive)
REMARK    1  A    between atoms: C_11  and  N_12
REMARK    2  A    between atoms: N_12  and  C_13
REMARK    3  A    between atoms: N_23  and  C_24
REMARK    4  A    between atoms: C_24  and  C_25
REMARK    5  A    between atoms: C_25  and  C_26
REMARK    6  A    between atoms: C_26  and  N_27
REMARK                            x       y       z     vdW  Elec       q    Type
REMARK                         _______ _______ _______ _____ _____    ______ ____
ROOT
ATOM      1  O   UNL     1      22.416  -1.957  55.427  0.00  0.00    +0.000 OA
ATOM      2  C   UNL     1      21.918  -1.166  54.622  0.00  0.00    +0.000 C 
ATOM      3  C   UNL     1      20.576  -1.433  53.950  0.00  0.00    +0.000 C 
ATOM      4  O   UNL     1      19.787  -0.321  53.567  0.00  0.00    +0.000 OA
ATOM      5  C   UNL     1      20.514   0.763  53.161  0.00  0.00    +0.000 A 
ATOM      6  C   UNL     1      19.813   1.762  52.479  0.00  0.00    +0.000 A 
ATOM      7  C   UNL     1      20.438   2.907  51.975  0.00  0.00    +0.000 A 
ATOM      8  N   UNL     1      19.712   3.785  51.290  0.00  0.00    +0.000 NA
ATOM      9  C   UNL     1      20.361   4.845  50.778  0.00  0.00    +0.000 A 
ATOM     10  N   UNL     1      21.675   5.095  50.849  0.00  0.00    +0.000 NA
ATOM     11  C   UNL     1      22.406   4.239  51.578  0.00  0.00    +0.000 A 
ATOM     12  C   UNL     1      21.804   3.097  52.200  0.00  0.00    +0.000 A 
ATOM     13  C   UNL     1      22.469   2.126  52.992  0.00  0.00    +0.000 A 
ATOM     14  C   UNL     1      21.875   0.918  53.387  0.00  0.00    +0.000 A 
ATOM     15  N   UNL     1      22.634  -0.107  54.032  0.00  0.00    +0.000 N 
ENDROOT
BRANCH  11  16
ATOM     16  N   UNL     1      23.816   4.408  51.649  0.00  0.00    +0.000 N 
ATOM     17  H   UNL     1      24.155   4.571  52.558  0.00  0.00    +0.000 HD
BRANCH  16  18
ATOM     18  C   UNL     1      24.820   4.385  50.653  0.00  0.00    +0.000 A 
ATOM     19  C   UNL     1      25.599   3.273  50.311  0.00  0.00    +0.000 A 
ATOM     20  C   UNL     1      26.670   3.385  49.400  0.00  0.00    +0.000 A 
ATOM     21  C   UNL     1      27.019   4.625  48.868  0.00  0.00    +0.000 A 
ATOM     22  C   UNL     1      26.239   5.724  49.185  0.00  0.00    +0.000 A 
ATOM     23  F   UNL     1      26.551   6.927  48.683  0.00  0.00    +0.000 F 
ATOM     24  C   UNL     1      25.143   5.608  50.039  0.00  0.00    +0.000 A 
ENDBRANCH  16  18
ENDBRANCH  11  16
BRANCH  15  25
ATOM     25  C   UNL     1      23.829  -0.608  53.342  0.00  0.00    +0.000 C 
BRANCH  25  26
ATOM     26  C   UNL     1      25.176   0.075  53.510  0.00  0.00    +0.000 C 
BRANCH  26  27
ATOM     27  C   UNL     1      26.386  -0.714  53.008  0.00  0.00    +0.000 C 
BRANCH  27  28
ATOM     28  N   UNL     1      27.664  -0.039  52.961  0.00  0.00    +0.000 N 
ATOM     29  C   UNL     1      28.686  -0.451  53.915  0.00  0.00    +0.000 C 
ATOM     30  C   UNL     1      28.916   0.576  55.023  0.00  0.00    +0.000 C 
ATOM     31  O   UNL     1      29.304   1.828  54.452  0.00  0.00    +0.000 OA
ATOM     32  C   UNL     1      28.249   2.365  53.644  0.00  0.00    +0.000 C 
ATOM     33  C   UNL     1      27.702   1.375  52.591  0.00  0.00    +0.000 C 
ATOM     34  H   UNL     1      27.978  -0.474  52.093  0.00  0.00    +0.000 HD
ENDBRANCH  27  28
ENDBRANCH  26  27
ENDBRANCH  25  26
ENDBRANCH  15  25
TORSDOF 6
ENDMDL
MODEL 3
REMARK VINA RESULT:    -8.973      0.951      1.364
REMARK INTER + INTRA:         -13.697
REMARK INTER:                 -12.408
REMARK INTRA:                  -1.288
REMARK UNBOUND:                -1.576
REMARK  Name = 
REMARK  6 active torsions:
REMARK  status: ('A' for Active; 'I' for Inactive)
REMARK    1  A    between atoms: C_11  and  N_12
REMARK    2  A    between atoms: N_12  and  C_13
REMARK    3  A    between atoms: N_23  and  C_24
REMARK    4  A    between atoms: C_24  and  C_25
REMARK    5  A    between atoms: C_25  and  C_26
REMARK    6  A    between atoms: C_26  and  N_27
REMARK                            x       y       z     vdW  Elec       q    Type
REMARK                         _______ _______ _______ _____ _____    ______ ____
ROOT
ATOM      1  O   UNL     1      19.337   2.888  49.071  0.00  0.00    +0.000 OA
ATOM      2  C   UNL     1      19.627   2.368  50.151  0.00  0.00    +0.000 C 
ATOM      3  C   UNL     1      18.615   2.230  51.282  0.00  0.00    +0.000 C 
ATOM      4  O   UNL     1      18.763   1.149  52.184  0.00  0.00    +0.000 OA
ATOM      5  C   UNL     1      20.063   0.802  52.428  0.00  0.00    +0.000 A 
ATOM      6  C   UNL     1      20.288  -0.027  53.531  0.00  0.00    +0.000 A 
ATOM      7  C   UNL     1      21.570  -0.428  53.918  0.00  0.00    +0.000 A 
ATOM      8  N   UNL     1      21.708  -1.173  55.010  0.00  0.00    +0.000 NA
ATOM      9  C   UNL     1      22.961  -1.494  55.377  0.00  0.00    +0.000 A 
ATOM     10  N   UNL     1      24.096  -1.110  54.780  0.00  0.00    +0.000 NA
ATOM     11  C   UNL     1      23.965  -0.398  53.651  0.00  0.00    +0.000 A 
ATOM     12  C   UNL     1      22.672  -0.036  53.151  0.00  0.00    +0.000 A 
ATOM     13  C   UNL     1      22.407   0.709  51.974  0.00  0.00    +0.000 A 
ATOM     14  C   UNL     1      21.139   1.220  51.656  0.00  0.00    +0.000 A 
ATOM     15  N   UNL     1      20.951   2.111  50.555  0.00  0.00    +0.000 N 
ENDROOT
BRANCH  11  16
ATOM     16  N   UNL     1      25.127   0.094  52.996  0.00  0.00    +0.000 N 
ATOM     17  H   UNL     1      24.941   0.758  52.294  0.00  0.00    +0.000 HD
BRANCH  16  18
ATOM     18  C   UNL     1      26.501  -0.196  53.166  0.00  0.00    +0.000 A 
ATOM     19  C   UNL     1      27.127  -1.398  52.817  0.00  0.00    +0.000 A 
ATOM     20  C   UNL     1      28.474  -1.645  53.153  0.00  0.00    +0.000 A 
ATOM     21  C   UNL     1      29.196  -0.717  53.902  0.00  0.00    +0.000 A 
ATOM     22  C   UNL     1      28.591   0.483  54.231  0.00  0.00    +0.000 A 
ATOM     23  F   UNL     1      29.265   1.393  54.948  0.00  0.00    +0.000 F 
ATOM     24  C   UNL     1      27.277   0.756  53.851  0.00  0.00    +0.000 A 
ENDBRANCH  16  18
ENDBRANCH  11  16
BRANCH  15  25
ATOM     25  C   UNL     1      21.751   3.342  50.530  0.00  0.00    +0.000 C 
BRANCH  25  26
ATOM     26  C   UNL     1      21.836   4.246  51.748  0.00  0.00    +0.000 C 
BRANCH  26  27
ATOM     27  C   UNL     1      23.204   4.312  52.430  0.00  0.00    +0.000 C 
BRANCH  27  28
ATOM     28  N   UNL     1      24.304   4.887  51.688  0.00  0.00    +0.000 N 
ATOM     29  C   UNL     1      24.109   6.205  51.096  0.00  0.00    +0.000 C 
ATOM     30  C   UNL     1      23.959   6.160  49.576  0.00  0.00    +0.000 C 
ATOM     31  O   UNL     1      25.118   5.564  48.991  0.00  0.00    +0.000 OA
ATOM     32  C   UNL     1      25.250   4.198  49.404  0.00  0.00    +0.000 C 
ATOM     33  C   UNL     1      25.189   3.999  50.935  0.00  0.00    +0.000 C 
ATOM     34  H   UNL     1      24.882   5.090  52.503  0.00  0.00    +0.000 HD
ENDBRANCH  27  28
ENDBRANCH  26  27
ENDBRANCH  25  26
ENDBRANCH  15  25
TORSDOF 6
ENDMDL
MODEL 4
REMARK VINA RESULT:    -8.822      2.652      4.797
REMARK INTER + INTRA:         -13.493
REMARK INTER:                 -11.864
REMARK INTRA:                  -1.629
REMARK UNBOUND:                -1.576
REMARK  Name = 
REMARK  6 active torsions:
REMARK  status: ('A' for Active; 'I' for Inactive)
REMARK    1  A    between atoms: C_11  and  N_12
REMARK    2  A    between atoms: N_12  and  C_13
REMARK    3  A    between atoms: N_23  and  C_24
REMARK    4  A    between atoms: C_24  and  C_25
REMARK    5  A    between atoms: C_25  and  C_26
REMARK    6  A    between atoms: C_26  and  N_27
REMARK                            x       y       z     vdW  Elec       q    Type
REMARK                         _______ _______ _______ _____ _____    ______ ____
ROOT
ATOM      1  O   UNL     1      18.486  -0.023  51.979  0.00  0.00    +0.000 OA
ATOM      2  C   UNL     1      19.633   0.017  52.432  0.00  0.00    +0.000 C 
ATOM      3  C   UNL     1      20.069  -0.846  53.610  0.00  0.00    +0.000 C 
ATOM      4  O   UNL     1      21.428  -1.232  53.690  0.00  0.00    +0.000 OA
ATOM      5  C   UNL     1      22.301  -0.294  53.211  0.00  0.00    +0.000 A 
ATOM      6  C   UNL     1      23.647  -0.470  53.546  0.00  0.00    +0.000 A 
ATOM      7  C   UNL     1      24.641   0.433  53.156  0.00  0.00    +0.000 A 
ATOM      8  N   UNL     1      25.891   0.226  53.560  0.00  0.00    +0.000 NA
ATOM      9  C   UNL     1      26.807   1.145  53.207  0.00  0.00    +0.000 A 
ATOM     10  N   UNL     1      26.589   2.274  52.521  0.00  0.00    +0.000 NA
ATOM     11  C   UNL     1      25.341   2.467  52.069  0.00  0.00    +0.000 A 
ATOM     12  C   UNL     1      24.298   1.527  52.356  0.00  0.00    +0.000 A 
ATOM     13  C   UNL     1      22.947   1.620  51.936  0.00  0.00    +0.000 A 
ATOM     14  C   UNL     1      21.928   0.791  52.430  0.00  0.00    +0.000 A 
ATOM     15  N   UNL     1      20.555   1.032  52.114  0.00  0.00    +0.000 N 
ENDROOT
BRANCH  11  16
ATOM     16  N   UNL     1      25.023   3.672  51.385  0.00  0.00    +0.000 N 
ATOM     17  H   UNL     1      24.185   4.093  51.682  0.00  0.00    +0.000 HD
BRANCH  16  18
ATOM     18  C   UNL     1      25.689   4.376  50.355  0.00  0.00    +0.000 A 
ATOM     19  C   UNL     1      26.763   3.888  49.602  0.00  0.00    +0.000 A 
ATOM     20  C   UNL     1      27.451   4.716  48.690  0.00  0.00    +0.000 A 
ATOM     21  C   UNL     1      27.115   6.063  48.567  0.00  0.00    +0.000 A 
ATOM     22  C   UNL     1      26.039   6.546  49.292  0.00  0.00    +0.000 A 
ATOM     23  F   UNL     1      25.694   7.837  49.188  0.00  0.00    +0.000 F 
ATOM     24  C   UNL     1      25.319   5.717  50.151  0.00  0.00    +0.000 A 
ENDBRANCH  16  18
ENDBRANCH  11  16
BRANCH  15  25
ATOM     25  C   UNL     1      20.004   2.355  52.432  0.00  0.00    +0.000 C 
BRANCH  25  26
ATOM     26  C   UNL     1      19.424   3.245  51.346  0.00  0.00    +0.000 C 
BRANCH  26  27
ATOM     27  C   UNL     1      20.435   4.104  50.584  0.00  0.00    +0.000 C 
BRANCH  27  28
ATOM     28  N   UNL     1      20.788   3.703  49.240  0.00  0.00    +0.000 N 
ATOM     29  C   UNL     1      20.241   2.449  48.739  0.00  0.00    +0.000 C 
ATOM     30  C   UNL     1      21.285   1.336  48.648  0.00  0.00    +0.000 C 
ATOM     31  O   UNL     1      22.354   1.743  47.791  0.00  0.00    +0.000 OA
ATOM     32  C   UNL     1      23.043   2.873  48.339  0.00  0.00    +0.000 C 
ATOM     33  C   UNL     1      22.113   4.045  48.726  0.00  0.00    +0.000 C 
ATOM     34  H   UNL     1      20.213   4.402  48.770  0.00  0.00    +0.000 HD
ENDBRANCH  27  28
ENDBRANCH  26  27
ENDBRANCH  25  26
ENDBRANCH  15  25
TORSDOF 6
ENDMDL
MODEL 5
REMARK VINA RESULT:    -8.788      3.175      6.125
REMARK INTER + INTRA:         -13.447
REMARK INTER:                 -11.828
REMARK INTRA:                  -1.619
REMARK UNBOUND:                -1.576
REMARK  Name = 
REMARK  6 active torsions:
REMARK  status: ('A' for Active; 'I' for Inactive)
REMARK    1  A    between atoms: C_11  and  N_12
REMARK    2  A    between atoms: N_12  and  C_13
REMARK    3  A    between atoms: N_23  and  C_24
REMARK    4  A    between atoms: C_24  and  C_25
REMARK    5  A    between atoms: C_25  and  C_26
REMARK    6  A    between atoms: C_26  and  N_27
REMARK                            x       y       z     vdW  Elec       q    Type
REMARK                         _______ _______ _______ _____ _____    ______ ____
ROOT
ATOM      1  O   UNL     1      28.537   2.077  52.750  0.00  0.00    +0.000 OA
ATOM      2  C   UNL     1      27.514   1.394  52.838  0.00  0.00    +0.000 C 
ATOM      3  C   UNL     1      27.555  -0.078  53.231  0.00  0.00    +0.000 C 
ATOM      4  O   UNL     1      26.434  -0.624  53.900  0.00  0.00    +0.000 OA
ATOM      5  C   UNL     1      25.238  -0.088  53.509  0.00  0.00    +0.000 A 
ATOM      6  C   UNL     1      24.089  -0.789  53.887  0.00  0.00    +0.000 A 
ATOM      7  C   UNL     1      22.804  -0.375  53.523  0.00  0.00    +0.000 A 
ATOM      8  N   UNL     1      21.764  -1.125  53.874  0.00  0.00    +0.000 NA
ATOM      9  C   UNL     1      20.551  -0.720  53.460  0.00  0.00    +0.000 A 
ATOM     10  N   UNL     1      20.278   0.343  52.693  0.00  0.00    +0.000 NA
ATOM     11  C   UNL     1      21.315   1.131  52.373  0.00  0.00    +0.000 A 
ATOM     12  C   UNL     1      22.645   0.810  52.799  0.00  0.00    +0.000 A 
ATOM     13  C   UNL     1      23.816   1.562  52.526  0.00  0.00    +0.000 A 
ATOM     14  C   UNL     1      25.112   1.085  52.777  0.00  0.00    +0.000 A 
ATOM     15  N   UNL     1      26.266   1.798  52.327  0.00  0.00    +0.000 N 
ENDROOT
BRANCH  11  16
ATOM     16  N   UNL     1      21.109   2.244  51.513  0.00  0.00    +0.000 N 
ATOM     17  H   UNL     1      20.685   3.016  51.950  0.00  0.00    +0.000 HD
BRANCH  16  18
ATOM     18  C   UNL     1      21.400   2.444  50.143  0.00  0.00    +0.000 A 
ATOM     19  C   UNL     1      21.819   1.452  49.249  0.00  0.00    +0.000 A 
ATOM     20  C   UNL     1      22.219   1.774  47.935  0.00  0.00    +0.000 A 
ATOM     21  C   UNL     1      22.268   3.103  47.518  0.00  0.00    +0.000 A 
ATOM     22  C   UNL     1      21.833   4.087  48.390  0.00  0.00    +0.000 A 
ATOM     23  F   UNL     1      21.867   5.372  48.011  0.00  0.00    +0.000 F 
ATOM     24  C   UNL     1      21.382   3.768  49.670  0.00  0.00    +0.000 A 
ENDBRANCH  16  18
ENDBRANCH  11  16
BRANCH  15  25
ATOM     25  C   UNL     1      26.365   2.102  50.895  0.00  0.00    +0.000 C 
BRANCH  25  26
ATOM     26  C   UNL     1      26.365   3.538  50.395  0.00  0.00    +0.000 C 
BRANCH  26  27
ATOM     27  C   UNL     1      25.008   4.243  50.408  0.00  0.00    +0.000 C 
BRANCH  27  28
ATOM     28  N   UNL     1      24.960   5.612  50.872  0.00  0.00    +0.000 N 
ATOM     29  C   UNL     1      23.765   6.048  51.582  0.00  0.00    +0.000 C 
ATOM     30  C   UNL     1      22.885   6.982  50.752  0.00  0.00    +0.000 C 
ATOM     31  O   UNL     1      23.632   8.137  50.366  0.00  0.00    +0.000 OA
ATOM     32  C   UNL     1      24.722   7.774  49.509  0.00  0.00    +0.000 C 
ATOM     33  C   UNL     1      25.617   6.650  50.078  0.00  0.00    +0.000 C 
ATOM     34  H   UNL     1      25.637   5.489  51.625  0.00  0.00    +0.000 HD
ENDBRANCH  27  28
ENDBRANCH  26  27
ENDBRANCH  25  26
ENDBRANCH  15  25
TORSDOF 6
ENDMDL
MODEL 6
REMARK VINA RESULT:    -8.050      2.729      5.585
REMARK INTER + INTRA:         -12.450
REMARK INTER:                 -11.446
REMARK INTRA:                  -1.005
REMARK UNBOUND:                -1.576
REMARK  Name = 
REMARK  6 active torsions:
REMARK  status: ('A' for Active; 'I' for Inactive)
REMARK    1  A    between atoms: C_11  and  N_12
REMARK    2  A    between atoms: N_12  and  C_13
REMARK    3  A    between atoms: N_23  and  C_24
REMARK    4  A    between atoms: C_24  and  C_25
REMARK    5  A    between atoms: C_25  and  C_26
REMARK    6  A    between atoms: C_26  and  N_27
REMARK                            x       y       z     vdW  Elec       q    Type
REMARK                         _______ _______ _______ _____ _____    ______ ____
ROOT
ATOM      1  O   UNL     1      18.875  -0.464  52.413  0.00  0.00    +0.000 OA
ATOM      2  C   UNL     1      20.031  -0.338  52.826  0.00  0.00    +0.000 C 
ATOM      3  C   UNL     1      20.558  -1.137  54.012  0.00  0.00    +0.000 C 
ATOM      4  O   UNL     1      21.941  -1.434  54.058  0.00  0.00    +0.000 OA
ATOM      5  C   UNL     1      22.737  -0.458  53.525  0.00  0.00    +0.000 A 
ATOM      6  C   UNL     1      24.102  -0.538  53.820  0.00  0.00    +0.000 A 
ATOM      7  C   UNL     1      25.023   0.414  53.373  0.00  0.00    +0.000 A 
ATOM      8  N   UNL     1      26.295   0.299  53.741  0.00  0.00    +0.000 NA
ATOM      9  C   UNL     1      27.139   1.262  53.333  0.00  0.00    +0.000 A 
ATOM     10  N   UNL     1      26.828   2.355  52.625  0.00  0.00    +0.000 NA
ATOM     11  C   UNL     1      25.556   2.456  52.209  0.00  0.00    +0.000 A 
ATOM     12  C   UNL     1      24.585   1.461  52.556  0.00  0.00    +0.000 A 
ATOM     13  C   UNL     1      23.219   1.456  52.178  0.00  0.00    +0.000 A 
ATOM     14  C   UNL     1      22.271   0.579  52.728  0.00  0.00    +0.000 A 
ATOM     15  N   UNL     1      20.876   0.723  52.451  0.00  0.00    +0.000 N 
ENDROOT
BRANCH  11  16
ATOM     16  N   UNL     1      25.140   3.618  51.503  0.00  0.00    +0.000 N 
ATOM     17  H   UNL     1      24.294   4.001  51.825  0.00  0.00    +0.000 HD
BRANCH  16  18
ATOM     18  C   UNL     1      25.719   4.322  50.423  0.00  0.00    +0.000 A 
ATOM     19  C   UNL     1      26.798   3.879  49.648  0.00  0.00    +0.000 A 
ATOM     20  C   UNL     1      27.394   4.714  48.680  0.00  0.00    +0.000 A 
ATOM     21  C   UNL     1      26.961   6.029  48.519  0.00  0.00    +0.000 A 
ATOM     22  C   UNL     1      25.880   6.466  49.264  0.00  0.00    +0.000 A 
ATOM     23  F   UNL     1      25.443   7.725  49.124  0.00  0.00    +0.000 F 
ATOM     24  C   UNL     1      25.250   5.626  50.181  0.00  0.00    +0.000 A 
ENDBRANCH  16  18
ENDBRANCH  11  16
BRANCH  15  25
ATOM     25  C   UNL     1      20.251   2.017  52.751  0.00  0.00    +0.000 C 
BRANCH  25  26
ATOM     26  C   UNL     1      20.121   3.092  51.685  0.00  0.00    +0.000 C 
BRANCH  26  27
ATOM     27  C   UNL     1      20.004   2.587  50.247  0.00  0.00    +0.000 C 
BRANCH  27  28
ATOM     28  N   UNL     1      18.698   2.604  49.627  0.00  0.00    +0.000 N 
ATOM     29  C   UNL     1      18.009   3.884  49.527  0.00  0.00    +0.000 C 
ATOM     30  C   UNL     1      16.834   4.007  50.496  0.00  0.00    +0.000 C 
ATOM     31  O   UNL     1      15.891   2.962  50.251  0.00  0.00    +0.000 OA
ATOM     32  C   UNL     1      16.474   1.680  50.515  0.00  0.00    +0.000 C 
ATOM     33  C   UNL     1      17.821   1.445  49.795  0.00  0.00    +0.000 C 
ATOM     34  H   UNL     1      19.033   2.454  48.675  0.00  0.00    +0.000 HD
ENDBRANCH  27  28
ENDBRANCH  26  27
ENDBRANCH  25  26
ENDBRANCH  15  25
TORSDOF 6
ENDMDL
MODEL 7
REMARK VINA RESULT:    -8.046      3.482      6.058
REMARK INTER + INTRA:         -12.444
REMARK INTER:                 -10.889
REMARK INTRA:                  -1.555
REMARK UNBOUND:                -1.576
REMARK  Name = 
REMARK  6 active torsions:
REMARK  status: ('A' for Active; 'I' for Inactive)
REMARK    1  A    between atoms: C_11  and  N_12
REMARK    2  A    between atoms: N_12  and  C_13
REMARK    3  A    between atoms: N_23  and  C_24
REMARK    4  A    between atoms: C_24  and  C_25
REMARK    5  A    between atoms: C_25  and  C_26
REMARK    6  A    between atoms: C_26  and  N_27
REMARK                            x       y       z     vdW  Elec       q    Type
REMARK                         _______ _______ _______ _____ _____    ______ ____
ROOT
ATOM      1  O   UNL     1      25.406   4.492  49.236  0.00  0.00    +0.000 OA
ATOM      2  C   UNL     1      25.289   3.490  49.946  0.00  0.00    +0.000 C 
ATOM      3  C   UNL     1      26.395   2.449  50.066  0.00  0.00    +0.000 C 
ATOM      4  O   UNL     1      26.496   1.715  51.273  0.00  0.00    +0.000 OA
ATOM      5  C   UNL     1      25.292   1.458  51.868  0.00  0.00    +0.000 A 
ATOM      6  C   UNL     1      25.291   0.483  52.871  0.00  0.00    +0.000 A 
ATOM      7  C   UNL     1      24.124   0.094  53.537  0.00  0.00    +0.000 A 
ATOM      8  N   UNL     1      24.195  -0.879  54.441  0.00  0.00    +0.000 NA
ATOM      9  C   UNL     1      23.043  -1.259  55.020  0.00  0.00    +0.000 A 
ATOM     10  N   UNL     1      21.817  -0.789  54.755  0.00  0.00    +0.000 NA
ATOM     11  C   UNL     1      21.742   0.224  53.880  0.00  0.00    +0.000 A 
ATOM     12  C   UNL     1      22.917   0.731  53.235  0.00  0.00    +0.000 A 
ATOM     13  C   UNL     1      22.965   1.793  52.297  0.00  0.00    +0.000 A 
ATOM     14  C   UNL     1      24.105   2.097  51.537  0.00  0.00    +0.000 A 
ATOM     15  N   UNL     1      24.059   3.059  50.480  0.00  0.00    +0.000 N 
ENDROOT
BRANCH  11  16
ATOM     16  N   UNL     1      20.468   0.733  53.506  0.00  0.00    +0.000 N 
ATOM     17  H   UNL     1      20.143   1.462  54.080  0.00  0.00    +0.000 HD
BRANCH  16  18
ATOM     18  C   UNL     1      19.583   0.382  52.461  0.00  0.00    +0.000 A 
ATOM     19  C   UNL     1      19.535   0.986  51.199  0.00  0.00    +0.000 A 
ATOM     20  C   UNL     1      18.524   0.661  50.271  0.00  0.00    +0.000 A 
ATOM     21  C   UNL     1      17.507  -0.227  50.617  0.00  0.00    +0.000 A 
ATOM     22  C   UNL     1      17.560  -0.846  51.854  0.00  0.00    +0.000 A 
ATOM     23  F   UNL     1      16.596  -1.706  52.209  0.00  0.00    +0.000 F 
ATOM     24  C   UNL     1      18.590  -0.571  52.753  0.00  0.00    +0.000 A 
ENDBRANCH  16  18
ENDBRANCH  11  16
BRANCH  15  25
ATOM     25  C   UNL     1      23.072   2.852  49.413  0.00  0.00    +0.000 C 
BRANCH  25  26
ATOM     26  C   UNL     1      21.930   3.832  49.201  0.00  0.00    +0.000 C 
BRANCH  26  27
ATOM     27  C   UNL     1      21.164   4.238  50.460  0.00  0.00    +0.000 C 
BRANCH  27  28
ATOM     28  N   UNL     1      21.498   5.503  51.079  0.00  0.00    +0.000 N 
ATOM     29  C   UNL     1      21.284   6.716  50.301  0.00  0.00    +0.000 C 
ATOM     30  C   UNL     1      22.587   7.351  49.815  0.00  0.00    +0.000 C 
ATOM     31  O   UNL     1      23.420   7.666  50.932  0.00  0.00    +0.000 OA
ATOM     32  C   UNL     1      23.809   6.474  51.627  0.00  0.00    +0.000 C 
ATOM     33  C   UNL     1      22.625   5.558  52.009  0.00  0.00    +0.000 C 
ATOM     34  H   UNL     1      20.711   5.510  51.728  0.00  0.00    +0.000 HD
ENDBRANCH  27  28
ENDBRANCH  26  27
ENDBRANCH  25  26
ENDBRANCH  15  25
TORSDOF 6
ENDMDL
MODEL 8
REMARK VINA RESULT:    -7.893      3.039      6.378
REMARK INTER + INTRA:         -12.238
REMARK INTER:                 -10.464
REMARK INTRA:                  -1.775
REMARK UNBOUND:                -1.576
REMARK  Name = 
REMARK  6 active torsions:
REMARK  status: ('A' for Active; 'I' for Inactive)
REMARK    1  A    between atoms: C_11  and  N_12
REMARK    2  A    between atoms: N_12  and  C_13
REMARK    3  A    between atoms: N_23  and  C_24
REMARK    4  A    between atoms: C_24  and  C_25
REMARK    5  A    between atoms: C_25  and  C_26
REMARK    6  A    between atoms: C_26  and  N_27
REMARK                            x       y       z     vdW  Elec       q    Type
REMARK                         _______ _______ _______ _____ _____    ______ ____
ROOT
ATOM      1  O   UNL     1      25.342   6.787  49.524  0.00  0.00    +0.000 OA
ATOM      2  C   UNL     1      25.502   5.598  49.807  0.00  0.00    +0.000 C 
ATOM      3  C   UNL     1      26.581   4.747  49.147  0.00  0.00    +0.000 C 
ATOM      4  O   UNL     1      27.125   3.667  49.884  0.00  0.00    +0.000 OA
ATOM      5  C   UNL     1      26.230   3.053  50.715  0.00  0.00    +0.000 A 
ATOM      6  C   UNL     1      26.606   1.805  51.221  0.00  0.00    +0.000 A 
ATOM      7  C   UNL     1      25.772   1.051  52.051  0.00  0.00    +0.000 A 
ATOM      8  N   UNL     1      26.178  -0.151  52.448  0.00  0.00    +0.000 NA
ATOM      9  C   UNL     1      25.326  -0.866  53.203  0.00  0.00    +0.000 A 
ATOM     10  N   UNL     1      24.086  -0.513  53.568  0.00  0.00    +0.000 NA
ATOM     11  C   UNL     1      23.686   0.716  53.212  0.00  0.00    +0.000 A 
ATOM     12  C   UNL     1      24.535   1.575  52.440  0.00  0.00    +0.000 A 
ATOM     13  C   UNL     1      24.226   2.889  52.006  0.00  0.00    +0.000 A 
ATOM     14  C   UNL     1      25.001   3.593  51.071  0.00  0.00    +0.000 A 
ATOM     15  N   UNL     1      24.561   4.840  50.530  0.00  0.00    +0.000 N 
ENDROOT
BRANCH  11  16
ATOM     16  N   UNL     1      22.361   1.136  53.513  0.00  0.00    +0.000 N 
ATOM     17  H   UNL     1      22.313   1.893  54.140  0.00  0.00    +0.000 HD
BRANCH  16  18
ATOM     18  C   UNL     1      21.101   0.664  53.079  0.00  0.00    +0.000 A 
ATOM     19  C   UNL     1      20.258  -0.186  53.804  0.00  0.00    +0.000 A 
ATOM     20  C   UNL     1      19.083  -0.713  53.230  0.00  0.00    +0.000 A 
ATOM     21  C   UNL     1      18.767  -0.449  51.899  0.00  0.00    +0.000 A 
ATOM     22  C   UNL     1      19.584   0.410  51.183  0.00  0.00    +0.000 A 
ATOM     23  F   UNL     1      19.300   0.683  49.902  0.00  0.00    +0.000 F 
ATOM     24  C   UNL     1      20.716   0.980  51.764  0.00  0.00    +0.000 A 
ENDBRANCH  16  18
ENDBRANCH  11  16
BRANCH  15  25
ATOM     25  C   UNL     1      23.250   4.872  49.870  0.00  0.00    +0.000 C 
BRANCH  25  26
ATOM     26  C   UNL     1      22.949   3.980  48.677  0.00  0.00    +0.000 C 
BRANCH  26  27
ATOM     27  C   UNL     1      21.826   2.962  48.878  0.00  0.00    +0.000 C 
BRANCH  27  28
ATOM     28  N   UNL     1      20.465   3.408  48.682  0.00  0.00    +0.000 N 
ATOM     29  C   UNL     1      20.093   3.897  47.361  0.00  0.00    +0.000 C 
ATOM     30  C   UNL     1      19.908   5.413  47.316  0.00  0.00    +0.000 C 
ATOM     31  O   UNL     1      18.899   5.807  48.248  0.00  0.00    +0.000 OA
ATOM     32  C   UNL     1      19.305   5.510  49.590  0.00  0.00    +0.000 C 
ATOM     33  C   UNL     1      19.765   4.049  49.795  0.00  0.00    +0.000 C 
ATOM     34  H   UNL     1      20.048   2.477  48.703  0.00  0.00    +0.000 HD
ENDBRANCH  27  28
ENDBRANCH  26  27
ENDBRANCH  25  26
ENDBRANCH  15  25
TORSDOF 6
ENDMDL
MODEL 9
REMARK VINA RESULT:    -7.738      2.482      5.701
REMARK INTER + INTRA:         -12.028
REMARK INTER:                 -10.575
REMARK INTRA:                  -1.453
REMARK UNBOUND:                -1.576
REMARK  Name = 
REMARK  6 active torsions:
REMARK  status: ('A' for Active; 'I' for Inactive)
REMARK    1  A    between atoms: C_11  and  N_12
REMARK    2  A    between atoms: N_12  and  C_13
REMARK    3  A    between atoms: N_23  and  C_24
REMARK    4  A    between atoms: C_24  and  C_25
REMARK    5  A    between atoms: C_25  and  C_26
REMARK    6  A    between atoms: C_26  and  N_27
REMARK                            x       y       z     vdW  Elec       q    Type
REMARK                         _______ _______ _______ _____ _____    ______ ____
ROOT
ATOM      1  O   UNL     1      19.254   4.321  50.784  0.00  0.00    +0.000 OA
ATOM      2  C   UNL     1      20.303   4.670  50.237  0.00  0.00    +0.000 C 
ATOM      3  C   UNL     1      20.350   5.821  49.239  0.00  0.00    +0.000 C 
ATOM      4  O   UNL     1      21.552   6.561  49.127  0.00  0.00    +0.000 OA
ATOM      5  C   UNL     1      22.683   5.816  49.316  0.00  0.00    +0.000 A 
ATOM      6  C   UNL     1      23.887   6.401  48.912  0.00  0.00    +0.000 A 
ATOM      7  C   UNL     1      25.114   5.737  49.011  0.00  0.00    +0.000 A 
ATOM      8  N   UNL     1      26.208   6.338  48.555  0.00  0.00    +0.000 NA
ATOM      9  C   UNL     1      27.358   5.645  48.622  0.00  0.00    +0.000 A 
ATOM     10  N   UNL     1      27.517   4.392  49.064  0.00  0.00    +0.000 NA
ATOM     11  C   UNL     1      26.427   3.795  49.570  0.00  0.00    +0.000 A 
ATOM     12  C   UNL     1      25.159   4.461  49.583  0.00  0.00    +0.000 A 
ATOM     13  C   UNL     1      23.942   3.938  50.088  0.00  0.00    +0.000 A 
ATOM     14  C   UNL     1      22.695   4.545  49.874  0.00  0.00    +0.000 A 
ATOM     15  N   UNL     1      21.478   3.895  50.248  0.00  0.00    +0.000 N 
ENDROOT
BRANCH  11  16
ATOM     16  N   UNL     1      26.507   2.443  50.003  0.00  0.00    +0.000 N 
ATOM     17  H   UNL     1      26.407   1.783  49.280  0.00  0.00    +0.000 HD
BRANCH  16  18
ATOM     18  C   UNL     1      26.703   1.873  51.282  0.00  0.00    +0.000 A 
ATOM     19  C   UNL     1      25.945   0.833  51.833  0.00  0.00    +0.000 A 
ATOM     20  C   UNL     1      26.127   0.425  53.171  0.00  0.00    +0.000 A 
ATOM     21  C   UNL     1      27.027   1.096  53.997  0.00  0.00    +0.000 A 
ATOM     22  C   UNL     1      27.796   2.110  53.453  0.00  0.00    +0.000 A 
ATOM     23  F   UNL     1      28.671   2.768  54.227  0.00  0.00    +0.000 F 
ATOM     24  C   UNL     1      27.661   2.479  52.115  0.00  0.00    +0.000 A 
ENDBRANCH  16  18
ENDBRANCH  11  16
BRANCH  15  25
ATOM     25  C   UNL     1      21.223   2.557  49.701  0.00  0.00    +0.000 C 
BRANCH  25  26
ATOM     26  C   UNL     1      21.237   1.328  50.595  0.00  0.00    +0.000 C 
BRANCH  26  27
ATOM     27  C   UNL     1      22.178   1.395  51.798  0.00  0.00    +0.000 C 
BRANCH  27  28
ATOM     28  N   UNL     1      21.679   0.935  53.075  0.00  0.00    +0.000 N 
ATOM     29  C   UNL     1      22.556   0.103  53.888  0.00  0.00    +0.000 C 
ATOM     30  C   UNL     1      22.123  -1.362  53.925  0.00  0.00    +0.000 C 
ATOM     31  O   UNL     1      20.794  -1.463  54.440  0.00  0.00    +0.000 OA
ATOM     32  C   UNL     1      19.862  -0.808  53.569  0.00  0.00    +0.000 C 
ATOM     33  C   UNL     1      20.253   0.644  53.212  0.00  0.00    +0.000 C 
ATOM     34  H   UNL     1      21.735   1.842  53.540  0.00  0.00    +0.000 HD
ENDBRANCH  27  28
ENDBRANCH  26  27
ENDBRANCH  25  26
ENDBRANCH  15  25
TORSDOF 6
ENDMDL
