REMARK  Name = 
REMARK  14 active torsions:
REMARK  status: ('A' for Active; 'I' for Inactive)
REMARK    1  A    between atoms: C_2  and  C_3
REMARK    2  A    between atoms: C_7  and  N_8
REMARK    3  A    between atoms: C_16  and  O_17
REMARK    4  A    between atoms: O_17  and  C_18
REMARK    5  A    between atoms: C_18  and  C_19
REMARK    6  A    between atoms: C_19  and  C_20
REMARK    7  A    between atoms: C_20  and  O_21
REMARK    8  A    between atoms: O_21  and  P_22
REMARK    9  A    between atoms: P_22  and  N_23
REMARK   10  A    between atoms: P_22  and  N_25
REMARK   11  A    between atoms: N_25  and  C_26
REMARK   12  A    between atoms: N_25  and  C_29
REMARK   13  A    between atoms: C_26  and  C_27
REMARK   14  A    between atoms: C_29  and  C_30
REMARK                            x       y       z     vdW  Elec       q    Type
REMARK                         _______ _______ _______ _____ _____    ______ ____
ROOT
ATOM      1  N   UNL     1       1.300   2.878  -3.918  0.00  0.00    +0.000 N 
ATOM      2  C   UNL     1       0.613   4.079  -3.627  0.00  0.00    +0.000 A 
ATOM      3  N   UNL     1       0.076   4.794  -4.632  0.00  0.00    +0.000 NA
ATOM      4  C   UNL     1      -0.691   5.837  -4.307  0.00  0.00    +0.000 A 
ATOM      5  N   UNL     1      -1.007   6.225  -3.073  0.00  0.00    +0.000 NA
ATOM      6  C   UNL     1      -0.463   5.522  -2.078  0.00  0.00    +0.000 A 
ATOM      7  C   UNL     1      -0.807   5.857  -0.777  0.00  0.00    +0.000 A 
ATOM      8  C   UNL     1      -0.282   5.177   0.328  0.00  0.00    +0.000 A 
ATOM      9  C   UNL     1       0.662   4.180   0.143  0.00  0.00    +0.000 A 
ATOM     10  C   UNL     1       1.024   3.837  -1.154  0.00  0.00    +0.000 A 
ATOM     11  C   UNL     1       0.416   4.452  -2.282  0.00  0.00    +0.000 A 
ATOM     12  H   UNL     1       1.618   2.400  -3.119  0.00  0.00    +0.000 HD
ENDROOT
BRANCH   1  17
ATOM     13  C   UNL     1       1.498   1.924  -7.542  0.00  0.00    +0.000 A 
ATOM     14  C   UNL     1       2.438   0.887  -7.471  0.00  0.00    +0.000 A 
ATOM     15  C   UNL     1       2.958   0.512  -6.240  0.00  0.00    +0.000 A 
ATOM     16  C   UNL     1       2.535   1.164  -5.077  0.00  0.00    +0.000 A 
ATOM     17  C   UNL     1       1.617   2.233  -5.128  0.00  0.00    +0.000 A 
ATOM     18  C   UNL     1       1.085   2.581  -6.370  0.00  0.00    +0.000 A 
BRANCH  13  20
ATOM     19  C   UNL     1       0.496   2.626  -9.870  0.00  0.00    +0.000 C 
ATOM     20  C   UNL     1       0.953   2.301  -8.804  0.00  0.00    +0.000 C 
ENDBRANCH  13  20
ENDBRANCH   1  17
BRANCH   9  21
ATOM     21  O   UNL     1       1.345   3.521   1.121  0.00  0.00    +0.000 OA
BRANCH  21  22
ATOM     22  C   UNL     1       0.658   3.247   2.341  0.00  0.00    +0.000 C 
BRANCH  22  23
ATOM     23  C   UNL     1       1.317   3.983   3.497  0.00  0.00    +0.000 C 
BRANCH  23  24
ATOM     24  C   UNL     1       1.283   5.489   3.315  0.00  0.00    +0.000 C 
BRANCH  24  25
ATOM     25  O   UNL     1       1.884   6.075   4.447  0.00  0.00    +0.000 OA
BRANCH  25  26
ATOM     26  P   UNL     1       2.344   7.622   4.376  0.00  0.00    +0.000 P 
ATOM     27  O   UNL     1       2.956   7.951   3.049  0.00  0.00    +0.000 OA
BRANCH  26  28
ATOM     28  N   UNL     1       0.915   8.358   4.586  0.00  0.00    +0.000 NA
ATOM     29  H   UNL     1       1.047   9.369   4.564  0.00  0.00    +0.000 HD
ATOM     30  H   UNL     1       0.521   8.085   5.487  0.00  0.00    +0.000 HD
ENDBRANCH  26  28
BRANCH  26  31
ATOM     31  N   UNL     1       3.392   7.721   5.675  0.00  0.00    +0.000 NA
BRANCH  31  32
ATOM     32  C   UNL     1       4.510   6.766   5.330  0.00  0.00    +0.000 C 
BRANCH  32  33
ATOM     33  C   UNL     1       5.749   6.573   6.204  0.00  0.00    +0.000 C 
ATOM     34 CL   UNL     1       6.825   5.365   5.425  0.00  0.00    +0.000 Cl
ENDBRANCH  32  33
ENDBRANCH  31  32
BRANCH  31  35
ATOM     35  C   UNL     1       3.969   9.030   6.049  0.00  0.00    +0.000 C 
BRANCH  35  36
ATOM     36  C   UNL     1       3.169  10.047   6.885  0.00  0.00    +0.000 C 
ATOM     37 CL   UNL     1       1.827  10.841   6.060  0.00  0.00    +0.000 Cl
ENDBRANCH  35  36
ENDBRANCH  31  35
ENDBRANCH  26  31
ENDBRANCH  25  26
ENDBRANCH  24  25
ENDBRANCH  23  24
ENDBRANCH  22  23
ENDBRANCH  21  22
ENDBRANCH   9  21
TORSDOF 14
