REMARK  Name = 
REMARK  8 active torsions:
REMARK  status: ('A' for Active; 'I' for Inactive)
REMARK    1  A    between atoms: C_2  and  C_3
REMARK    2  A    between atoms: C_8  and  O_9
REMARK    3  A    between atoms: O_9  and  C_10
REMARK    4  A    between atoms: N_13  and  C_14
REMARK    5  A    between atoms: C_17  and  C_18
REMARK    6  A    between atoms: C_18  and  N_19
REMARK    7  A    between atoms: C_22  and  C_23
REMARK    8  A    between atoms: C_23  and  O_24
REMARK                            x       y       z     vdW  Elec       q    Type
REMARK                         _______ _______ _______ _____ _____    ______ ____
ROOT
ATOM      1  C   UNL     1      -7.006   0.890   1.425  0.00  0.00    +0.000 A 
ATOM      2  N   UNL     1      -7.383   0.632   2.698  0.00  0.00    +0.000 NA
ATOM      3  C   UNL     1      -6.600  -0.199   3.400  0.00  0.00    +0.000 A 
ATOM      4  N   UNL     1      -6.942  -0.413   4.729  0.00  0.00    +0.000 N 
ATOM      5  N   UNL     1      -5.495  -0.776   2.898  0.00  0.00    +0.000 NA
ATOM      6  C   UNL     1      -5.123  -0.430   1.649  0.00  0.00    +0.000 A 
ATOM      7  C   UNL     1      -5.836   0.430   0.859  0.00  0.00    +0.000 A 
ATOM      8 CL   UNL     1      -5.293   0.844  -0.711  0.00  0.00    +0.000 Cl
ATOM      9  H   UNL     1      -7.392   0.337   5.182  0.00  0.00    +0.000 HD
ENDROOT
BRANCH   4  10
ATOM     10  C   UNL     1      -6.730  -1.558   5.508  0.00  0.00    +0.000 A 
ATOM     11  C   UNL     1      -6.572  -1.419   6.890  0.00  0.00    +0.000 A 
ATOM     12  C   UNL     1      -6.366  -2.537   7.701  0.00  0.00    +0.000 A 
ATOM     13  C   UNL     1      -6.347  -3.824   7.147  0.00  0.00    +0.000 A 
ATOM     14  C   UNL     1      -6.486  -3.965   5.762  0.00  0.00    +0.000 A 
ATOM     15  C   UNL     1      -6.669  -2.842   4.953  0.00  0.00    +0.000 A 
BRANCH  13  16
ATOM     16  C   UNL     1      -6.225  -5.044   8.034  0.00  0.00    +0.000 C 
BRANCH  16  17
ATOM     17  N   UNL     1      -7.305  -5.137   9.034  0.00  0.00    +0.000 N 
ATOM     18  C   UNL     1      -8.628  -5.264   8.401  0.00  0.00    +0.000 C 
ATOM     19  C   UNL     1      -9.738  -5.281   9.453  0.00  0.00    +0.000 C 
ATOM     20  C   UNL     1      -9.525  -6.404  10.475  0.00  0.00    +0.000 C 
ATOM     21  C   UNL     1      -8.105  -6.324  11.047  0.00  0.00    +0.000 C 
ATOM     22  C   UNL     1      -7.055  -6.270   9.934  0.00  0.00    +0.000 C 
ATOM     23  H   UNL     1      -7.309  -4.271   9.573  0.00  0.00    +0.000 HD
BRANCH  20  24
ATOM     24  C   UNL     1     -10.559  -6.359  11.602  0.00  0.00    +0.000 C 
BRANCH  24  25
ATOM     25  O   UNL     1     -11.873  -6.538  11.091  0.00  0.00    +0.000 OA
ATOM     26  H   UNL     1     -12.076  -5.826  10.464  0.00  0.00    +0.000 HD
ENDBRANCH  24  25
ENDBRANCH  20  24
ENDBRANCH  16  17
ENDBRANCH  13  16
ENDBRANCH   4  10
BRANCH   1  27
ATOM     27  O   UNL     1      -7.856   1.631   0.629  0.00  0.00    +0.000 OA
BRANCH  27  33
ATOM     28  C   UNL     1     -13.063   0.908  -0.656  0.00  0.00    +0.000 C 
ATOM     29  O   UNL     1     -13.603   1.800  -1.310  0.00  0.00    +0.000 OA
ATOM     30  N   UNL     1     -11.980   1.137   0.179  0.00  0.00    +0.000 N 
ATOM     31  C   UNL     1     -11.483   2.507   0.308  0.00  0.00    +0.000 C 
ATOM     32  C   UNL     1      -9.979   2.553   0.075  0.00  0.00    +0.000 C 
ATOM     33  C   UNL     1      -9.241   1.586   1.011  0.00  0.00    +0.000 C 
ATOM     34  C   UNL     1      -9.835   0.173   0.863  0.00  0.00    +0.000 C 
ATOM     35  C   UNL     1     -11.343   0.179   1.078  0.00  0.00    +0.000 C 
BRANCH  28  37
ATOM     36  C   UNL     1     -14.848  -0.697  -1.144  0.00  0.00    +0.000 C 
ATOM     37  C   UNL     1     -13.583  -0.486  -0.759  0.00  0.00    +0.000 C 
ENDBRANCH  28  37
ENDBRANCH  27  33
ENDBRANCH   1  27
TORSDOF 8
