MODEL 1
REMARK VINA RESULT:    -8.491      0.000      0.000
REMARK INTER + INTRA:         -14.624
REMARK INTER:                 -12.959
REMARK INTRA:                  -1.665
REMARK UNBOUND:                -1.665
REMARK  Name = 
REMARK  10 active torsions:
REMARK  status: ('A' for Active; 'I' for Inactive)
REMARK    1  A    between atoms: C_2  and  C_3
REMARK    2  A    between atoms: N_5  and  C_6
REMARK    3  A    between atoms: C_10  and  C_11
REMARK    4  A    between atoms: C_22  and  O_23
REMARK    5  A    between atoms: O_23  and  C_24
REMARK    6  A    between atoms: C_25  and  O_26
REMARK    7  A    between atoms: O_26  and  C_27
REMARK    8  A    between atoms: C_27  and  C_28
REMARK    9  A    between atoms: C_28  and  C_29
REMARK   10  A    between atoms: C_29  and  N_30
REMARK                            x       y       z     vdW  Elec       q    Type
REMARK                         _______ _______ _______ _____ _____    ______ ____
ROOT
ATOM      1  C   UNL     1      22.625   3.004  48.764  0.00  0.00    +0.000 C 
ATOM      2  O   UNL     1      22.713   3.339  47.586  0.00  0.00    +0.000 OA
ATOM      3  N   UNL     1      23.656   3.121  49.713  0.00  0.00    +0.000 N 
ATOM      4  C   UNL     1      23.280   3.412  51.078  0.00  0.00    +0.000 A 
ATOM      5  N   UNL     1      22.859   4.678  51.304  0.00  0.00    +0.000 NA
ATOM      6  C   UNL     1      23.245   5.218  52.460  0.00  0.00    +0.000 A 
ATOM      7  N   UNL     1      24.021   4.627  53.372  0.00  0.00    +0.000 NA
ATOM      8  C   UNL     1      24.329   3.338  53.150  0.00  0.00    +0.000 A 
ATOM      9  C   UNL     1      25.284   2.735  53.946  0.00  0.00    +0.000 A 
ATOM     10  C   UNL     1      25.710   1.414  53.730  0.00  0.00    +0.000 A 
ATOM     11  C   UNL     1      24.911   0.566  52.976  0.00  0.00    +0.000 A 
ATOM     12  C   UNL     1      24.051   1.193  52.066  0.00  0.00    +0.000 A 
ATOM     13  C   UNL     1      23.856   2.609  52.077  0.00  0.00    +0.000 A 
ENDROOT
BRANCH   3  14
ATOM     14  C   UNL     1      24.769   3.974  49.334  0.00  0.00    +0.000 A 
ATOM     15  C   UNL     1      26.075   3.488  49.443  0.00  0.00    +0.000 A 
ATOM     16  C   UNL     1      27.162   4.307  49.128  0.00  0.00    +0.000 A 
ATOM     17  C   UNL     1      26.958   5.628  48.714  0.00  0.00    +0.000 A 
ATOM     18  C   UNL     1      25.658   6.143  48.608  0.00  0.00    +0.000 A 
ATOM     19  C   UNL     1      24.573   5.308  48.926  0.00  0.00    +0.000 A 
BRANCH  18  20
ATOM     20  C   UNL     1      25.416   7.571  48.178  0.00  0.00    +0.000 C 
ATOM     21  F   UNL     1      24.190   7.765  47.613  0.00  0.00    +0.000 F 
ATOM     22  F   UNL     1      25.491   8.454  49.210  0.00  0.00    +0.000 F 
ATOM     23  F   UNL     1      26.320   7.998  47.252  0.00  0.00    +0.000 F 
ENDBRANCH  18  20
ENDBRANCH   3  14
BRANCH   1  25
ATOM     24  C   UNL     1      21.343   0.948  49.087  0.00  0.00    +0.000 C 
ATOM     25  C   UNL     1      21.410   2.269  49.230  0.00  0.00    +0.000 C 
ENDBRANCH   1  25
BRANCH  10  26
ATOM     26  O   UNL     1      26.965   1.026  54.111  0.00  0.00    +0.000 OA
ATOM     27  C   UNL     1      27.979   1.912  53.576  0.00  0.00    +0.000 C 
ENDBRANCH  10  26
BRANCH  11  28
ATOM     28  O   UNL     1      24.840  -0.790  52.988  0.00  0.00    +0.000 OA
BRANCH  28  29
ATOM     29  C   UNL     1      23.755  -1.562  53.514  0.00  0.00    +0.000 C 
BRANCH  29  30
ATOM     30  C   UNL     1      22.782  -0.923  54.539  0.00  0.00    +0.000 C 
BRANCH  30  31
ATOM     31  C   UNL     1      21.321  -1.335  54.194  0.00  0.00    +0.000 C 
BRANCH  31  32
ATOM     32  N   UNL     1      20.246  -0.343  54.155  0.00  0.00    +0.000 N 
ATOM     33  C   UNL     1      19.102  -0.745  53.310  0.00  0.00    +0.000 C 
ATOM     34  C   UNL     1      19.085  -0.103  51.914  0.00  0.00    +0.000 C 
ATOM     35  O   UNL     1      19.104   1.321  52.020  0.00  0.00    +0.000 OA
ATOM     36  C   UNL     1      20.316   1.742  52.657  0.00  0.00    +0.000 C 
ATOM     37  C   UNL     1      20.521   1.090  54.041  0.00  0.00    +0.000 C 
ATOM     38  H   UNL     1      20.010  -0.388  55.146  0.00  0.00    +0.000 HD
ENDBRANCH  31  32
ENDBRANCH  30  31
ENDBRANCH  29  30
ENDBRANCH  28  29
ENDBRANCH  11  28
TORSDOF 9
ENDMDL
MODEL 2
REMARK VINA RESULT:    -7.602      3.846      7.323
REMARK INTER + INTRA:         -13.266
REMARK INTER:                 -12.024
REMARK INTRA:                  -1.242
REMARK UNBOUND:                -1.665
REMARK  Name = 
REMARK  10 active torsions:
REMARK  status: ('A' for Active; 'I' for Inactive)
REMARK    1  A    between atoms: C_2  and  C_3
REMARK    2  A    between atoms: N_5  and  C_6
REMARK    3  A    between atoms: C_10  and  C_11
REMARK    4  A    between atoms: C_22  and  O_23
REMARK    5  A    between atoms: O_23  and  C_24
REMARK    6  A    between atoms: C_25  and  O_26
REMARK    7  A    between atoms: O_26  and  C_27
REMARK    8  A    between atoms: C_27  and  C_28
REMARK    9  A    between atoms: C_28  and  C_29
REMARK   10  A    between atoms: C_29  and  N_30
REMARK                            x       y       z     vdW  Elec       q    Type
REMARK                         _______ _______ _______ _____ _____    ______ ____
ROOT
ATOM      1  C   UNL     1      26.137   3.274  50.263  0.00  0.00    +0.000 C 
ATOM      2  O   UNL     1      27.148   2.630  50.532  0.00  0.00    +0.000 OA
ATOM      3  N   UNL     1      24.830   2.908  50.627  0.00  0.00    +0.000 N 
ATOM      4  C   UNL     1      23.898   3.971  50.932  0.00  0.00    +0.000 A 
ATOM      5  N   UNL     1      24.104   4.600  52.111  0.00  0.00    +0.000 NA
ATOM      6  C   UNL     1      23.005   4.940  52.786  0.00  0.00    +0.000 A 
ATOM      7  N   UNL     1      21.752   4.684  52.406  0.00  0.00    +0.000 NA
ATOM      8  C   UNL     1      21.595   4.149  51.183  0.00  0.00    +0.000 A 
ATOM      9  C   UNL     1      20.348   3.681  50.817  0.00  0.00    +0.000 A 
ATOM     10  C   UNL     1      20.122   3.045  49.584  0.00  0.00    +0.000 A 
ATOM     11  C   UNL     1      21.038   3.225  48.558  0.00  0.00    +0.000 A 
ATOM     12  C   UNL     1      22.339   3.558  48.958  0.00  0.00    +0.000 A 
ATOM     13  C   UNL     1      22.638   3.903  50.312  0.00  0.00    +0.000 A 
ENDROOT
BRANCH   3  14
ATOM     14  C   UNL     1      24.722   1.876  51.642  0.00  0.00    +0.000 A 
ATOM     15  C   UNL     1      25.872   1.450  52.314  0.00  0.00    +0.000 A 
ATOM     16  C   UNL     1      25.798   0.427  53.262  0.00  0.00    +0.000 A 
ATOM     17  C   UNL     1      24.576  -0.194  53.541  0.00  0.00    +0.000 A 
ATOM     18  C   UNL     1      23.410   0.207  52.873  0.00  0.00    +0.000 A 
ATOM     19  C   UNL     1      23.497   1.239  51.923  0.00  0.00    +0.000 A 
BRANCH  18  20
ATOM     20  C   UNL     1      22.083  -0.461  53.148  0.00  0.00    +0.000 C 
ATOM     21  F   UNL     1      22.196  -1.789  53.437  0.00  0.00    +0.000 F 
ATOM     22  F   UNL     1      21.420   0.090  54.200  0.00  0.00    +0.000 F 
ATOM     23  F   UNL     1      21.231  -0.387  52.086  0.00  0.00    +0.000 F 
ENDBRANCH  18  20
ENDBRANCH   3  14
BRANCH   1  25
ATOM     24  C   UNL     1      27.409   4.757  48.794  0.00  0.00    +0.000 C 
ATOM     25  C   UNL     1      26.240   4.453  49.351  0.00  0.00    +0.000 C 
ENDBRANCH   1  25
BRANCH  10  26
ATOM     26  O   UNL     1      19.110   2.134  49.456  0.00  0.00    +0.000 OA
ATOM     27  C   UNL     1      18.757   1.551  50.736  0.00  0.00    +0.000 C 
ENDBRANCH  10  26
BRANCH  11  28
ATOM     28  O   UNL     1      20.862   3.125  47.216  0.00  0.00    +0.000 OA
BRANCH  28  29
ATOM     29  C   UNL     1      21.796   3.554  46.219  0.00  0.00    +0.000 C 
BRANCH  29  30
ATOM     30  C   UNL     1      21.631   4.946  45.557  0.00  0.00    +0.000 C 
BRANCH  30  31
ATOM     31  C   UNL     1      22.418   6.008  46.379  0.00  0.00    +0.000 C 
BRANCH  31  32
ATOM     32  N   UNL     1      21.728   7.125  47.026  0.00  0.00    +0.000 N 
ATOM     33  C   UNL     1      22.567   7.850  48.004  0.00  0.00    +0.000 C 
ATOM     34  C   UNL     1      22.304   7.474  49.470  0.00  0.00    +0.000 C 
ATOM     35  O   UNL     1      20.929   7.679  49.798  0.00  0.00    +0.000 OA
ATOM     36  C   UNL     1      20.108   6.822  48.996  0.00  0.00    +0.000 C 
ATOM     37  C   UNL     1      20.341   7.017  47.482  0.00  0.00    +0.000 C 
ATOM     38  H   UNL     1      21.582   7.677  46.180  0.00  0.00    +0.000 HD
ENDBRANCH  31  32
ENDBRANCH  30  31
ENDBRANCH  29  30
ENDBRANCH  28  29
ENDBRANCH  11  28
TORSDOF 9
ENDMDL
MODEL 3
REMARK VINA RESULT:    -7.510      3.605      7.744
REMARK INTER + INTRA:         -13.127
REMARK INTER:                 -11.673
REMARK INTRA:                  -1.454
REMARK UNBOUND:                -1.665
REMARK  Name = 
REMARK  10 active torsions:
REMARK  status: ('A' for Active; 'I' for Inactive)
REMARK    1  A    between atoms: C_2  and  C_3
REMARK    2  A    between atoms: N_5  and  C_6
REMARK    3  A    between atoms: C_10  and  C_11
REMARK    4  A    between atoms: C_22  and  O_23
REMARK    5  A    between atoms: O_23  and  C_24
REMARK    6  A    between atoms: C_25  and  O_26
REMARK    7  A    between atoms: O_26  and  C_27
REMARK    8  A    between atoms: C_27  and  C_28
REMARK    9  A    between atoms: C_28  and  C_29
REMARK   10  A    between atoms: C_29  and  N_30
REMARK                            x       y       z     vdW  Elec       q    Type
REMARK                         _______ _______ _______ _____ _____    ______ ____
ROOT
ATOM      1  C   UNL     1      25.911   1.844  51.363  0.00  0.00    +0.000 C 
ATOM      2  O   UNL     1      26.409   0.780  51.724  0.00  0.00    +0.000 OA
ATOM      3  N   UNL     1      24.536   2.132  51.370  0.00  0.00    +0.000 N 
ATOM      4  C   UNL     1      24.139   3.494  51.651  0.00  0.00    +0.000 A 
ATOM      5  N   UNL     1      24.279   3.884  52.938  0.00  0.00    +0.000 NA
ATOM      6  C   UNL     1      23.315   4.673  53.412  0.00  0.00    +0.000 A 
ATOM      7  N   UNL     1      22.236   5.071  52.735  0.00  0.00    +0.000 NA
ATOM      8  C   UNL     1      22.192   4.743  51.433  0.00  0.00    +0.000 A 
ATOM      9  C   UNL     1      21.018   4.950  50.733  0.00  0.00    +0.000 A 
ATOM     10  C   UNL     1      20.872   4.567  49.390  0.00  0.00    +0.000 A 
ATOM     11  C   UNL     1      22.011   4.338  48.630  0.00  0.00    +0.000 A 
ATOM     12  C   UNL     1      23.159   3.984  49.349  0.00  0.00    +0.000 A 
ATOM     13  C   UNL     1      23.203   4.072  50.775  0.00  0.00    +0.000 A 
ENDROOT
BRANCH   3  14
ATOM     14  C   UNL     1      23.704   1.227  52.144  0.00  0.00    +0.000 A 
ATOM     15  C   UNL     1      24.299   0.392  53.095  0.00  0.00    +0.000 A 
ATOM     16  C   UNL     1      23.525  -0.519  53.818  0.00  0.00    +0.000 A 
ATOM     17  C   UNL     1      22.148  -0.617  53.589  0.00  0.00    +0.000 A 
ATOM     18  C   UNL     1      21.529   0.202  52.634  0.00  0.00    +0.000 A 
ATOM     19  C   UNL     1      22.319   1.115  51.915  0.00  0.00    +0.000 A 
BRANCH  18  20
ATOM     20  C   UNL     1      20.047   0.101  52.360  0.00  0.00    +0.000 C 
ATOM     21  F   UNL     1      19.753  -0.117  51.047  0.00  0.00    +0.000 F 
ATOM     22  F   UNL     1      19.449  -0.911  53.045  0.00  0.00    +0.000 F 
ATOM     23  F   UNL     1      19.374   1.236  52.705  0.00  0.00    +0.000 F 
ENDBRANCH  18  20
ENDBRANCH   3  14
BRANCH   1  25
ATOM     24  C   UNL     1      26.746   3.022  49.391  0.00  0.00    +0.000 C 
ATOM     25  C   UNL     1      26.776   2.874  50.713  0.00  0.00    +0.000 C 
ENDBRANCH   1  25
BRANCH  10  26
ATOM     26  O   UNL     1      19.636   4.261  48.892  0.00  0.00    +0.000 OA
ATOM     27  C   UNL     1      19.430   2.828  48.828  0.00  0.00    +0.000 C 
ENDBRANCH  10  26
BRANCH  11  28
ATOM     28  O   UNL     1      22.178   4.406  47.284  0.00  0.00    +0.000 OA
BRANCH  28  29
ATOM     29  C   UNL     1      22.378   5.606  46.529  0.00  0.00    +0.000 C 
BRANCH  29  30
ATOM     30  C   UNL     1      22.515   6.964  47.264  0.00  0.00    +0.000 C 
BRANCH  30  31
ATOM     31  C   UNL     1      23.966   7.501  47.097  0.00  0.00    +0.000 C 
BRANCH  31  32
ATOM     32  N   UNL     1      24.683   8.103  48.223  0.00  0.00    +0.000 N 
ATOM     33  C   UNL     1      25.940   7.404  48.563  0.00  0.00    +0.000 C 
ATOM     34  C   UNL     1      25.835   6.455  49.768  0.00  0.00    +0.000 C 
ATOM     35  O   UNL     1      25.372   7.162  50.919  0.00  0.00    +0.000 OA
ATOM     36  C   UNL     1      24.055   7.672  50.676  0.00  0.00    +0.000 C 
ATOM     37  C   UNL     1      23.986   8.570  49.422  0.00  0.00    +0.000 C 
ATOM     38  H   UNL     1      24.867   9.001  47.777  0.00  0.00    +0.000 HD
ENDBRANCH  31  32
ENDBRANCH  30  31
ENDBRANCH  29  30
ENDBRANCH  28  29
ENDBRANCH  11  28
TORSDOF 9
ENDMDL
MODEL 4
REMARK VINA RESULT:    -7.497      3.513      6.755
REMARK INTER + INTRA:         -13.106
REMARK INTER:                 -11.772
REMARK INTRA:                  -1.334
REMARK UNBOUND:                -1.665
REMARK  Name = 
REMARK  10 active torsions:
REMARK  status: ('A' for Active; 'I' for Inactive)
REMARK    1  A    between atoms: C_2  and  C_3
REMARK    2  A    between atoms: N_5  and  C_6
REMARK    3  A    between atoms: C_10  and  C_11
REMARK    4  A    between atoms: C_22  and  O_23
REMARK    5  A    between atoms: O_23  and  C_24
REMARK    6  A    between atoms: C_25  and  O_26
REMARK    7  A    between atoms: O_26  and  C_27
REMARK    8  A    between atoms: C_27  and  C_28
REMARK    9  A    between atoms: C_28  and  C_29
REMARK   10  A    between atoms: C_29  and  N_30
REMARK                            x       y       z     vdW  Elec       q    Type
REMARK                         _______ _______ _______ _____ _____    ______ ____
ROOT
ATOM      1  C   UNL     1      26.299   4.004  49.764  0.00  0.00    +0.000 C 
ATOM      2  O   UNL     1      27.466   3.624  49.822  0.00  0.00    +0.000 OA
ATOM      3  N   UNL     1      25.209   3.349  50.362  0.00  0.00    +0.000 N 
ATOM      4  C   UNL     1      24.127   4.169  50.860  0.00  0.00    +0.000 A 
ATOM      5  N   UNL     1      24.398   4.860  51.991  0.00  0.00    +0.000 NA
ATOM      6  C   UNL     1      23.399   4.948  52.869  0.00  0.00    +0.000 A 
ATOM      7  N   UNL     1      22.193   4.393  52.730  0.00  0.00    +0.000 NA
ATOM      8  C   UNL     1      21.938   3.805  51.549  0.00  0.00    +0.000 A 
ATOM      9  C   UNL     1      20.792   3.045  51.418  0.00  0.00    +0.000 A 
ATOM     10  C   UNL     1      20.493   2.341  50.239  0.00  0.00    +0.000 A 
ATOM     11  C   UNL     1      21.129   2.706  49.060  0.00  0.00    +0.000 A 
ATOM     12  C   UNL     1      22.365   3.347  49.212  0.00  0.00    +0.000 A 
ATOM     13  C   UNL     1      22.825   3.788  50.491  0.00  0.00    +0.000 A 
ENDROOT
BRANCH   3  14
ATOM     14  C   UNL     1      25.543   2.348  51.359  0.00  0.00    +0.000 A 
ATOM     15  C   UNL     1      24.592   1.385  51.712  0.00  0.00    +0.000 A 
ATOM     16  C   UNL     1      24.876   0.441  52.702  0.00  0.00    +0.000 A 
ATOM     17  C   UNL     1      26.110   0.455  53.362  0.00  0.00    +0.000 A 
ATOM     18  C   UNL     1      27.076   1.416  53.034  0.00  0.00    +0.000 A 
ATOM     19  C   UNL     1      26.779   2.360  52.035  0.00  0.00    +0.000 A 
BRANCH  18  20
ATOM     20  C   UNL     1      28.409   1.459  53.745  0.00  0.00    +0.000 C 
ATOM     21  F   UNL     1      29.391   0.773  53.095  0.00  0.00    +0.000 F 
ATOM     22  F   UNL     1      28.885   2.724  53.903  0.00  0.00    +0.000 F 
ATOM     23  F   UNL     1      28.350   0.921  54.996  0.00  0.00    +0.000 F 
ENDBRANCH  18  20
ENDBRANCH   3  14
BRANCH   1  25
ATOM     24  C   UNL     1      26.839   6.106  48.639  0.00  0.00    +0.000 C 
ATOM     25  C   UNL     1      25.944   5.149  48.872  0.00  0.00    +0.000 C 
ENDBRANCH   1  25
BRANCH  10  26
ATOM     26  O   UNL     1      19.721   1.213  50.288  0.00  0.00    +0.000 OA
ATOM     27  C   UNL     1      20.136   0.334  51.363  0.00  0.00    +0.000 C 
ENDBRANCH  10  26
BRANCH  11  28
ATOM     28  O   UNL     1      20.730   2.532  47.775  0.00  0.00    +0.000 OA
BRANCH  28  29
ATOM     29  C   UNL     1      19.774   3.342  47.083  0.00  0.00    +0.000 C 
BRANCH  29  30
ATOM     30  C   UNL     1      20.091   4.832  46.796  0.00  0.00    +0.000 C 
BRANCH  30  31
ATOM     31  C   UNL     1      19.571   5.709  47.973  0.00  0.00    +0.000 C 
BRANCH  31  32
ATOM     32  N   UNL     1      20.216   6.979  48.309  0.00  0.00    +0.000 N 
ATOM     33  C   UNL     1      21.481   7.210  47.580  0.00  0.00    +0.000 C 
ATOM     34  C   UNL     1      22.749   6.909  48.395  0.00  0.00    +0.000 C 
ATOM     35  O   UNL     1      22.761   7.679  49.598  0.00  0.00    +0.000 OA
ATOM     36  C   UNL     1      21.644   7.312  50.417  0.00  0.00    +0.000 C 
ATOM     37  C   UNL     1      20.293   7.466  49.687  0.00  0.00    +0.000 C 
ATOM     38  H   UNL     1      19.471   7.584  47.961  0.00  0.00    +0.000 HD
ENDBRANCH  31  32
ENDBRANCH  30  31
ENDBRANCH  29  30
ENDBRANCH  28  29
ENDBRANCH  11  28
TORSDOF 9
ENDMDL
MODEL 5
REMARK VINA RESULT:    -7.398      2.488      5.566
REMARK INTER + INTRA:         -12.956
REMARK INTER:                 -11.663
REMARK INTRA:                  -1.293
REMARK UNBOUND:                -1.665
REMARK  Name = 
REMARK  10 active torsions:
REMARK  status: ('A' for Active; 'I' for Inactive)
REMARK    1  A    between atoms: C_2  and  C_3
REMARK    2  A    between atoms: N_5  and  C_6
REMARK    3  A    between atoms: C_10  and  C_11
REMARK    4  A    between atoms: C_22  and  O_23
REMARK    5  A    between atoms: O_23  and  C_24
REMARK    6  A    between atoms: C_25  and  O_26
REMARK    7  A    between atoms: O_26  and  C_27
REMARK    8  A    between atoms: C_27  and  C_28
REMARK    9  A    between atoms: C_28  and  C_29
REMARK   10  A    between atoms: C_29  and  N_30
REMARK                            x       y       z     vdW  Elec       q    Type
REMARK                         _______ _______ _______ _____ _____    ______ ____
ROOT
ATOM      1  C   UNL     1      25.057   4.929  49.573  0.00  0.00    +0.000 C 
ATOM      2  O   UNL     1      25.253   6.130  49.400  0.00  0.00    +0.000 OA
ATOM      3  N   UNL     1      23.828   4.360  49.947  0.00  0.00    +0.000 N 
ATOM      4  C   UNL     1      23.510   3.050  49.424  0.00  0.00    +0.000 A 
ATOM      5  N   UNL     1      23.185   3.014  48.112  0.00  0.00    +0.000 NA
ATOM      6  C   UNL     1      22.209   2.169  47.780  0.00  0.00    +0.000 A 
ATOM      7  N   UNL     1      21.527   1.399  48.631  0.00  0.00    +0.000 NA
ATOM      8  C   UNL     1      21.953   1.394  49.906  0.00  0.00    +0.000 A 
ATOM      9  C   UNL     1      21.173   0.778  50.866  0.00  0.00    +0.000 A 
ATOM     10  C   UNL     1      21.515   0.794  52.228  0.00  0.00    +0.000 A 
ATOM     11  C   UNL     1      22.825   1.077  52.588  0.00  0.00    +0.000 A 
ATOM     12  C   UNL     1      23.558   1.831  51.662  0.00  0.00    +0.000 A 
ATOM     13  C   UNL     1      23.058   2.093  50.350  0.00  0.00    +0.000 A 
ENDROOT
BRANCH   3  14
ATOM     14  C   UNL     1      22.666   5.220  49.811  0.00  0.00    +0.000 A 
ATOM     15  C   UNL     1      21.787   5.362  50.889  0.00  0.00    +0.000 A 
ATOM     16  C   UNL     1      20.638   6.148  50.764  0.00  0.00    +0.000 A 
ATOM     17  C   UNL     1      20.346   6.790  49.556  0.00  0.00    +0.000 A 
ATOM     18  C   UNL     1      21.206   6.655  48.457  0.00  0.00    +0.000 A 
ATOM     19  C   UNL     1      22.359   5.863  48.596  0.00  0.00    +0.000 A 
BRANCH  18  20
ATOM     20  C   UNL     1      20.902   7.327  47.138  0.00  0.00    +0.000 C 
ATOM     21  F   UNL     1      22.018   7.719  46.461  0.00  0.00    +0.000 F 
ATOM     22  F   UNL     1      20.213   6.526  46.282  0.00  0.00    +0.000 F 
ATOM     23  F   UNL     1      20.148   8.453  47.289  0.00  0.00    +0.000 F 
ENDBRANCH  18  20
ENDBRANCH   3  14
BRANCH   1  25
ATOM     24  C   UNL     1      27.365   4.367  48.997  0.00  0.00    +0.000 C 
ATOM     25  C   UNL     1      26.216   3.987  49.550  0.00  0.00    +0.000 C 
ENDBRANCH   1  25
BRANCH  10  26
ATOM     26  O   UNL     1      20.541   0.698  53.183  0.00  0.00    +0.000 OA
ATOM     27  C   UNL     1      20.239  -0.685  53.494  0.00  0.00    +0.000 C 
ENDBRANCH  10  26
BRANCH  11  28
ATOM     28  O   UNL     1      23.506   0.732  53.710  0.00  0.00    +0.000 OA
BRANCH  28  29
ATOM     29  C   UNL     1      24.189  -0.508  53.922  0.00  0.00    +0.000 C 
BRANCH  29  30
ATOM     30  C   UNL     1      25.087  -1.093  52.802  0.00  0.00    +0.000 C 
BRANCH  30  31
ATOM     31  C   UNL     1      26.415  -0.285  52.726  0.00  0.00    +0.000 C 
BRANCH  31  32
ATOM     32  N   UNL     1      26.981   0.349  53.918  0.00  0.00    +0.000 N 
ATOM     33  C   UNL     1      26.932   1.826  53.880  0.00  0.00    +0.000 C 
ATOM     34  C   UNL     1      28.258   2.497  53.489  0.00  0.00    +0.000 C 
ATOM     35  O   UNL     1      29.302   2.091  54.375  0.00  0.00    +0.000 OA
ATOM     36  C   UNL     1      29.504   0.677  54.267  0.00  0.00    +0.000 C 
ATOM     37  C   UNL     1      28.218  -0.133  54.537  0.00  0.00    +0.000 C 
ATOM     38  H   UNL     1      26.306  -0.028  54.583  0.00  0.00    +0.000 HD
ENDBRANCH  31  32
ENDBRANCH  30  31
ENDBRANCH  29  30
ENDBRANCH  28  29
ENDBRANCH  11  28
TORSDOF 9
ENDMDL
MODEL 6
REMARK VINA RESULT:    -7.269      2.871      5.956
REMARK INTER + INTRA:         -12.759
REMARK INTER:                 -11.648
REMARK INTRA:                  -1.110
REMARK UNBOUND:                -1.665
REMARK  Name = 
REMARK  10 active torsions:
REMARK  status: ('A' for Active; 'I' for Inactive)
REMARK    1  A    between atoms: C_2  and  C_3
REMARK    2  A    between atoms: N_5  and  C_6
REMARK    3  A    between atoms: C_10  and  C_11
REMARK    4  A    between atoms: C_22  and  O_23
REMARK    5  A    between atoms: O_23  and  C_24
REMARK    6  A    between atoms: C_25  and  O_26
REMARK    7  A    between atoms: O_26  and  C_27
REMARK    8  A    between atoms: C_27  and  C_28
REMARK    9  A    between atoms: C_28  and  C_29
REMARK   10  A    between atoms: C_29  and  N_30
REMARK                            x       y       z     vdW  Elec       q    Type
REMARK                         _______ _______ _______ _____ _____    ______ ____
ROOT
ATOM      1  C   UNL     1      20.886   1.624  51.282  0.00  0.00    +0.000 C 
ATOM      2  O   UNL     1      19.952   0.945  50.863  0.00  0.00    +0.000 OA
ATOM      3  N   UNL     1      21.587   2.581  50.528  0.00  0.00    +0.000 N 
ATOM      4  C   UNL     1      22.079   3.751  51.221  0.00  0.00    +0.000 A 
ATOM      5  N   UNL     1      21.135   4.650  51.580  0.00  0.00    +0.000 NA
ATOM      6  C   UNL     1      21.484   5.932  51.464  0.00  0.00    +0.000 A 
ATOM      7  N   UNL     1      22.654   6.379  51.005  0.00  0.00    +0.000 NA
ATOM      8  C   UNL     1      23.594   5.450  50.758  0.00  0.00    +0.000 A 
ATOM      9  C   UNL     1      24.747   5.829  50.097  0.00  0.00    +0.000 A 
ATOM     10  C   UNL     1      25.741   4.903  49.740  0.00  0.00    +0.000 A 
ATOM     11  C   UNL     1      25.775   3.673  50.383  0.00  0.00    +0.000 A 
ATOM     12  C   UNL     1      24.557   3.237  50.921  0.00  0.00    +0.000 A 
ATOM     13  C   UNL     1      23.421   4.101  50.994  0.00  0.00    +0.000 A 
ENDROOT
BRANCH   3  14
ATOM     14  C   UNL     1      20.954   2.996  49.288  0.00  0.00    +0.000 A 
ATOM     15  C   UNL     1      19.569   3.182  49.254  0.00  0.00    +0.000 A 
ATOM     16  C   UNL     1      18.933   3.536  48.061  0.00  0.00    +0.000 A 
ATOM     17  C   UNL     1      19.673   3.695  46.884  0.00  0.00    +0.000 A 
ATOM     18  C   UNL     1      21.062   3.503  46.890  0.00  0.00    +0.000 A 
ATOM     19  C   UNL     1      21.689   3.149  48.097  0.00  0.00    +0.000 A 
BRANCH  18  20
ATOM     20  C   UNL     1      21.877   3.653  45.626  0.00  0.00    +0.000 C 
ATOM     21  F   UNL     1      22.881   2.737  45.519  0.00  0.00    +0.000 F 
ATOM     22  F   UNL     1      21.132   3.520  44.496  0.00  0.00    +0.000 F 
ATOM     23  F   UNL     1      22.480   4.872  45.537  0.00  0.00    +0.000 F 
ENDBRANCH  18  20
ENDBRANCH   3  14
BRANCH   1  25
ATOM     24  C   UNL     1      22.524   0.551  52.744  0.00  0.00    +0.000 C 
ATOM     25  C   UNL     1      21.455   1.335  52.633  0.00  0.00    +0.000 C 
ENDBRANCH   1  25
BRANCH  10  26
ATOM     26  O   UNL     1      26.551   5.145  48.665  0.00  0.00    +0.000 OA
ATOM     27  C   UNL     1      27.005   6.521  48.643  0.00  0.00    +0.000 C 
ENDBRANCH  10  26
BRANCH  11  28
ATOM     28  O   UNL     1      26.818   2.825  50.567  0.00  0.00    +0.000 OA
BRANCH  28  29
ATOM     29  C   UNL     1      27.052   2.035  51.739  0.00  0.00    +0.000 C 
BRANCH  29  30
ATOM     30  C   UNL     1      26.646   0.539  51.753  0.00  0.00    +0.000 C 
BRANCH  30  31
ATOM     31  C   UNL     1      26.353   0.094  53.215  0.00  0.00    +0.000 C 
BRANCH  31  32
ATOM     32  N   UNL     1      27.355  -0.629  53.999  0.00  0.00    +0.000 N 
ATOM     33  C   UNL     1      28.366   0.252  54.621  0.00  0.00    +0.000 C 
ATOM     34  C   UNL     1      29.705   0.312  53.870  0.00  0.00    +0.000 C 
ATOM     35  O   UNL     1      30.256  -0.999  53.729  0.00  0.00    +0.000 OA
ATOM     36  C   UNL     1      29.375  -1.811  52.944  0.00  0.00    +0.000 C 
ATOM     37  C   UNL     1      27.948  -1.881  53.529  0.00  0.00    +0.000 C 
ATOM     38  H   UNL     1      26.710  -1.003  54.696  0.00  0.00    +0.000 HD
ENDBRANCH  31  32
ENDBRANCH  30  31
ENDBRANCH  29  30
ENDBRANCH  28  29
ENDBRANCH  11  28
TORSDOF 9
ENDMDL
MODEL 7
REMARK VINA RESULT:    -7.215      3.717      6.232
REMARK INTER + INTRA:         -12.676
REMARK INTER:                 -11.625
REMARK INTRA:                  -1.051
REMARK UNBOUND:                -1.665
REMARK  Name = 
REMARK  10 active torsions:
REMARK  status: ('A' for Active; 'I' for Inactive)
REMARK    1  A    between atoms: C_2  and  C_3
REMARK    2  A    between atoms: N_5  and  C_6
REMARK    3  A    between atoms: C_10  and  C_11
REMARK    4  A    between atoms: C_22  and  O_23
REMARK    5  A    between atoms: O_23  and  C_24
REMARK    6  A    between atoms: C_25  and  O_26
REMARK    7  A    between atoms: O_26  and  C_27
REMARK    8  A    between atoms: C_27  and  C_28
REMARK    9  A    between atoms: C_28  and  C_29
REMARK   10  A    between atoms: C_29  and  N_30
REMARK                            x       y       z     vdW  Elec       q    Type
REMARK                         _______ _______ _______ _____ _____    ______ ____
ROOT
ATOM      1  C   UNL     1      26.233   4.011  49.729  0.00  0.00    +0.000 C 
ATOM      2  O   UNL     1      27.404   3.643  49.762  0.00  0.00    +0.000 OA
ATOM      3  N   UNL     1      25.162   3.345  50.351  0.00  0.00    +0.000 N 
ATOM      4  C   UNL     1      24.083   4.155  50.873  0.00  0.00    +0.000 A 
ATOM      5  N   UNL     1      24.373   4.848  51.998  0.00  0.00    +0.000 NA
ATOM      6  C   UNL     1      23.392   4.926  52.898  0.00  0.00    +0.000 A 
ATOM      7  N   UNL     1      22.189   4.360  52.785  0.00  0.00    +0.000 NA
ATOM      8  C   UNL     1      21.914   3.769  51.609  0.00  0.00    +0.000 A 
ATOM      9  C   UNL     1      20.772   2.998  51.503  0.00  0.00    +0.000 A 
ATOM     10  C   UNL     1      20.455   2.292  50.330  0.00  0.00    +0.000 A 
ATOM     11  C   UNL     1      21.062   2.663  49.138  0.00  0.00    +0.000 A 
ATOM     12  C   UNL     1      22.294   3.316  49.264  0.00  0.00    +0.000 A 
ATOM     13  C   UNL     1      22.778   3.762  50.532  0.00  0.00    +0.000 A 
ENDROOT
BRANCH   3  14
ATOM     14  C   UNL     1      25.528   2.347  51.340  0.00  0.00    +0.000 A 
ATOM     15  C   UNL     1      24.604   1.359  51.692  0.00  0.00    +0.000 A 
ATOM     16  C   UNL     1      24.917   0.416  52.675  0.00  0.00    +0.000 A 
ATOM     17  C   UNL     1      26.154   0.458  53.328  0.00  0.00    +0.000 A 
ATOM     18  C   UNL     1      27.094   1.446  53.000  0.00  0.00    +0.000 A 
ATOM     19  C   UNL     1      26.767   2.387  52.009  0.00  0.00    +0.000 A 
BRANCH  18  20
ATOM     20  C   UNL     1      28.429   1.518  53.704  0.00  0.00    +0.000 C 
ATOM     21  F   UNL     1      28.878   2.793  53.880  0.00  0.00    +0.000 F 
ATOM     22  F   UNL     1      28.405   0.961  54.945  0.00  0.00    +0.000 F 
ATOM     23  F   UNL     1      29.415   0.871  53.021  0.00  0.00    +0.000 F 
ENDBRANCH  18  20
ENDBRANCH   3  14
BRANCH   1  25
ATOM     24  C   UNL     1      26.704   6.151  48.646  0.00  0.00    +0.000 C 
ATOM     25  C   UNL     1      25.847   5.153  48.846  0.00  0.00    +0.000 C 
ENDBRANCH   1  25
BRANCH  10  26
ATOM     26  O   UNL     1      19.695   1.157  50.396  0.00  0.00    +0.000 OA
ATOM     27  C   UNL     1      19.830   0.503  51.682  0.00  0.00    +0.000 C 
ENDBRANCH  10  26
BRANCH  11  28
ATOM     28  O   UNL     1      20.636   2.485  47.862  0.00  0.00    +0.000 OA
BRANCH  28  29
ATOM     29  C   UNL     1      20.048   3.493  47.032  0.00  0.00    +0.000 C 
BRANCH  29  30
ATOM     30  C   UNL     1      18.631   3.276  46.443  0.00  0.00    +0.000 C 
BRANCH  30  31
ATOM     31  C   UNL     1      17.564   3.775  47.460  0.00  0.00    +0.000 C 
BRANCH  31  32
ATOM     32  N   UNL     1      17.502   3.231  48.817  0.00  0.00    +0.000 N 
ATOM     33  C   UNL     1      16.708   1.988  48.919  0.00  0.00    +0.000 C 
ATOM     34  C   UNL     1      15.282   2.187  49.457  0.00  0.00    +0.000 C 
ATOM     35  O   UNL     1      15.316   2.821  50.737  0.00  0.00    +0.000 OA
ATOM     36  C   UNL     1      15.900   4.124  50.614  0.00  0.00    +0.000 C 
ATOM     37  C   UNL     1      17.310   4.090  49.986  0.00  0.00    +0.000 C 
ATOM     38  H   UNL     1      18.500   3.042  48.912  0.00  0.00    +0.000 HD
ENDBRANCH  31  32
ENDBRANCH  30  31
ENDBRANCH  29  30
ENDBRANCH  28  29
ENDBRANCH  11  28
TORSDOF 9
ENDMDL
MODEL 8
REMARK VINA RESULT:    -7.203      4.106      8.456
REMARK INTER + INTRA:         -12.658
REMARK INTER:                 -11.323
REMARK INTRA:                  -1.335
REMARK UNBOUND:                -1.665
REMARK  Name = 
REMARK  10 active torsions:
REMARK  status: ('A' for Active; 'I' for Inactive)
REMARK    1  A    between atoms: C_2  and  C_3
REMARK    2  A    between atoms: N_5  and  C_6
REMARK    3  A    between atoms: C_10  and  C_11
REMARK    4  A    between atoms: C_22  and  O_23
REMARK    5  A    between atoms: O_23  and  C_24
REMARK    6  A    between atoms: C_25  and  O_26
REMARK    7  A    between atoms: O_26  and  C_27
REMARK    8  A    between atoms: C_27  and  C_28
REMARK    9  A    between atoms: C_28  and  C_29
REMARK   10  A    between atoms: C_29  and  N_30
REMARK                            x       y       z     vdW  Elec       q    Type
REMARK                         _______ _______ _______ _____ _____    ______ ____
ROOT
ATOM      1  C   UNL     1      25.639   1.807  51.241  0.00  0.00    +0.000 C 
ATOM      2  O   UNL     1      25.921   0.626  51.423  0.00  0.00    +0.000 OA
ATOM      3  N   UNL     1      24.334   2.309  51.092  0.00  0.00    +0.000 N 
ATOM      4  C   UNL     1      24.063   3.632  51.610  0.00  0.00    +0.000 A 
ATOM      5  N   UNL     1      23.999   3.722  52.958  0.00  0.00    +0.000 NA
ATOM      6  C   UNL     1      23.066   4.545  53.439  0.00  0.00    +0.000 A 
ATOM      7  N   UNL     1      22.196   5.244  52.707  0.00  0.00    +0.000 NA
ATOM      8  C   UNL     1      22.365   5.200  51.374  0.00  0.00    +0.000 A 
ATOM      9  C   UNL     1      21.384   5.735  50.561  0.00  0.00    +0.000 A 
ATOM     10  C   UNL     1      21.454   5.662  49.160  0.00  0.00    +0.000 A 
ATOM     11  C   UNL     1      22.681   5.411  48.562  0.00  0.00    +0.000 A 
ATOM     12  C   UNL     1      23.615   4.734  49.357  0.00  0.00    +0.000 A 
ATOM     13  C   UNL     1      23.393   4.521  50.752  0.00  0.00    +0.000 A 
ENDROOT
BRANCH   3  14
ATOM     14  C   UNL     1      23.263   1.414  51.492  0.00  0.00    +0.000 A 
ATOM     15  C   UNL     1      22.159   1.245  50.650  0.00  0.00    +0.000 A 
ATOM     16  C   UNL     1      21.096   0.424  51.036  0.00  0.00    +0.000 A 
ATOM     17  C   UNL     1      21.117  -0.228  52.274  0.00  0.00    +0.000 A 
ATOM     18  C   UNL     1      22.208  -0.067  53.140  0.00  0.00    +0.000 A 
ATOM     19  C   UNL     1      23.271   0.761  52.739  0.00  0.00    +0.000 A 
BRANCH  18  20
ATOM     20  C   UNL     1      22.243  -0.749  54.488  0.00  0.00    +0.000 C 
ATOM     21  F   UNL     1      21.754  -2.022  54.461  0.00  0.00    +0.000 F 
ATOM     22  F   UNL     1      23.500  -0.846  54.999  0.00  0.00    +0.000 F 
ATOM     23  F   UNL     1      21.505  -0.090  55.425  0.00  0.00    +0.000 F 
ENDBRANCH  18  20
ENDBRANCH   3  14
BRANCH   1  25
ATOM     24  C   UNL     1      26.898   3.306  49.777  0.00  0.00    +0.000 C 
ATOM     25  C   UNL     1      26.734   2.793  50.994  0.00  0.00    +0.000 C 
ENDBRANCH   1  25
BRANCH  10  26
ATOM     26  O   UNL     1      20.309   5.671  48.413  0.00  0.00    +0.000 OA
ATOM     27  C   UNL     1      19.670   6.972  48.439  0.00  0.00    +0.000 C 
ENDBRANCH  10  26
BRANCH  11  28
ATOM     28  O   UNL     1      23.112   5.723  47.313  0.00  0.00    +0.000 OA
BRANCH  28  29
ATOM     29  C   UNL     1      23.225   7.046  46.778  0.00  0.00    +0.000 C 
BRANCH  29  30
ATOM     30  C   UNL     1      24.556   7.827  46.930  0.00  0.00    +0.000 C 
BRANCH  30  31
ATOM     31  C   UNL     1      24.704   8.320  48.399  0.00  0.00    +0.000 C 
BRANCH  31  32
ATOM     32  N   UNL     1      25.826   7.884  49.231  0.00  0.00    +0.000 N 
ATOM     33  C   UNL     1      26.590   9.002  49.824  0.00  0.00    +0.000 C 
ATOM     34  C   UNL     1      27.897   9.339  49.091  0.00  0.00    +0.000 C 
ATOM     35  O   UNL     1      28.741   8.188  49.022  0.00  0.00    +0.000 OA
ATOM     36  C   UNL     1      28.092   7.159  48.264  0.00  0.00    +0.000 C 
ATOM     37  C   UNL     1      26.705   6.785  48.830  0.00  0.00    +0.000 C 
ATOM     38  H   UNL     1      25.268   7.401  49.936  0.00  0.00    +0.000 HD
ENDBRANCH  31  32
ENDBRANCH  30  31
ENDBRANCH  29  30
ENDBRANCH  28  29
ENDBRANCH  11  28
TORSDOF 9
ENDMDL
MODEL 9
REMARK VINA RESULT:    -7.152      2.223      3.174
REMARK INTER + INTRA:         -12.580
REMARK INTER:                 -11.029
REMARK INTRA:                  -1.551
REMARK UNBOUND:                -1.665
REMARK  Name = 
REMARK  10 active torsions:
REMARK  status: ('A' for Active; 'I' for Inactive)
REMARK    1  A    between atoms: C_2  and  C_3
REMARK    2  A    between atoms: N_5  and  C_6
REMARK    3  A    between atoms: C_10  and  C_11
REMARK    4  A    between atoms: C_22  and  O_23
REMARK    5  A    between atoms: O_23  and  C_24
REMARK    6  A    between atoms: C_25  and  O_26
REMARK    7  A    between atoms: O_26  and  C_27
REMARK    8  A    between atoms: C_27  and  C_28
REMARK    9  A    between atoms: C_28  and  C_29
REMARK   10  A    between atoms: C_29  and  N_30
REMARK                            x       y       z     vdW  Elec       q    Type
REMARK                         _______ _______ _______ _____ _____    ______ ____
ROOT
ATOM      1  C   UNL     1      22.582   5.644  48.367  0.00  0.00    +0.000 C 
ATOM      2  O   UNL     1      23.025   6.109  47.320  0.00  0.00    +0.000 OA
ATOM      3  N   UNL     1      23.305   4.829  49.255  0.00  0.00    +0.000 N 
ATOM      4  C   UNL     1      23.019   4.959  50.667  0.00  0.00    +0.000 A 
ATOM      5  N   UNL     1      23.480   6.090  51.249  0.00  0.00    +0.000 NA
ATOM      6  C   UNL     1      23.958   5.950  52.485  0.00  0.00    +0.000 A 
ATOM      7  N   UNL     1      24.040   4.802  53.161  0.00  0.00    +0.000 NA
ATOM      8  C   UNL     1      23.478   3.727  52.582  0.00  0.00    +0.000 A 
ATOM      9  C   UNL     1      23.704   2.481  53.134  0.00  0.00    +0.000 A 
ATOM     10  C   UNL     1      23.210   1.304  52.547  0.00  0.00    +0.000 A 
ATOM     11  C   UNL     1      22.167   1.395  51.635  0.00  0.00    +0.000 A 
ATOM     12  C   UNL     1      22.045   2.624  50.976  0.00  0.00    +0.000 A 
ATOM     13  C   UNL     1      22.802   3.767  51.379  0.00  0.00    +0.000 A 
ENDROOT
BRANCH   3  14
ATOM     14  C   UNL     1      24.744   4.807  49.063  0.00  0.00    +0.000 A 
ATOM     15  C   UNL     1      25.461   3.650  49.382  0.00  0.00    +0.000 A 
ATOM     16  C   UNL     1      26.852   3.622  49.249  0.00  0.00    +0.000 A 
ATOM     17  C   UNL     1      27.545   4.754  48.807  0.00  0.00    +0.000 A 
ATOM     18  C   UNL     1      26.849   5.930  48.490  0.00  0.00    +0.000 A 
ATOM     19  C   UNL     1      25.450   5.945  48.628  0.00  0.00    +0.000 A 
BRANCH  18  20
ATOM     20  C   UNL     1      27.579   7.169  48.027  0.00  0.00    +0.000 C 
ATOM     21  F   UNL     1      27.849   8.046  49.036  0.00  0.00    +0.000 F 
ATOM     22  F   UNL     1      28.778   6.892  47.448  0.00  0.00    +0.000 F 
ATOM     23  F   UNL     1      26.870   7.877  47.103  0.00  0.00    +0.000 F 
ENDBRANCH  18  20
ENDBRANCH   3  14
BRANCH   1  25
ATOM     24  C   UNL     1      20.248   4.949  48.158  0.00  0.00    +0.000 C 
ATOM     25  C   UNL     1      21.129   5.797  48.681  0.00  0.00    +0.000 C 
ENDBRANCH   1  25
BRANCH  10  26
ATOM     26  O   UNL     1      23.857   0.114  52.741  0.00  0.00    +0.000 OA
ATOM     27  C   UNL     1      25.296   0.282  52.701  0.00  0.00    +0.000 C 
ENDBRANCH  10  26
BRANCH  11  28
ATOM     28  O   UNL     1      21.244   0.463  51.285  0.00  0.00    +0.000 OA
BRANCH  28  29
ATOM     29  C   UNL     1      20.309  -0.158  52.174  0.00  0.00    +0.000 C 
BRANCH  29  30
ATOM     30  C   UNL     1      18.791   0.099  51.997  0.00  0.00    +0.000 C 
BRANCH  30  31
ATOM     31  C   UNL     1      18.511   0.578  50.543  0.00  0.00    +0.000 C 
BRANCH  31  32
ATOM     32  N   UNL     1      18.496   2.003  50.207  0.00  0.00    +0.000 N 
ATOM     33  C   UNL     1      18.398   2.886  51.388  0.00  0.00    +0.000 C 
ATOM     34  C   UNL     1      16.987   3.432  51.659  0.00  0.00    +0.000 C 
ATOM     35  O   UNL     1      16.497   4.133  50.515  0.00  0.00    +0.000 OA
ATOM     36  C   UNL     1      16.388   3.232  49.406  0.00  0.00    +0.000 C 
ATOM     37  C   UNL     1      17.720   2.523  49.080  0.00  0.00    +0.000 C 
ATOM     38  H   UNL     1      19.429   2.035  49.795  0.00  0.00    +0.000 HD
ENDBRANCH  31  32
ENDBRANCH  30  31
ENDBRANCH  29  30
ENDBRANCH  28  29
ENDBRANCH  11  28
TORSDOF 9
ENDMDL
