MODEL 1
REMARK VINA RESULT:    -8.896      0.000      0.000
REMARK INTER + INTRA:         -12.609
REMARK INTER:                 -11.496
REMARK INTRA:                  -1.113
REMARK UNBOUND:                -1.113
REMARK  Name = 
REMARK  6 active torsions:
REMARK  status: ('A' for Active; 'I' for Inactive)
REMARK    1  A    between atoms: C_1  and  O_2
REMARK    2  A    between atoms: O_2  and  C_3
REMARK    3  A    between atoms: C_9  and  N_10
REMARK    4  A    between atoms: N_10  and  C_11
REMARK    5  A    between atoms: C_21  and  N_22
REMARK    6  A    between atoms: C_25  and  C_26
REMARK                            x       y       z     vdW  Elec       q    Type
REMARK                         _______ _______ _______ _____ _____    ______ ____
ROOT
ATOM      1  C   UNL     1      20.790   2.046  52.534  0.00  0.00    +0.000 A 
ATOM      2  C   UNL     1      20.773   1.123  53.593  0.00  0.00    +0.000 A 
ATOM      3  C   UNL     1      21.853   0.304  53.882  0.00  0.00    +0.000 A 
ATOM      4  N   UNL     1      21.776  -0.481  54.958  0.00  0.00    +0.000 NA
ATOM      5  C   UNL     1      22.859  -1.213  55.241  0.00  0.00    +0.000 A 
ATOM      6  N   UNL     1      23.994  -1.236  54.543  0.00  0.00    +0.000 NA
ATOM      7  C   UNL     1      24.043  -0.485  53.427  0.00  0.00    +0.000 A 
ATOM      8  C   UNL     1      22.976   0.358  53.054  0.00  0.00    +0.000 A 
ATOM      9  C   UNL     1      22.967   1.236  51.941  0.00  0.00    +0.000 A 
ATOM     10  C   UNL     1      21.893   2.100  51.667  0.00  0.00    +0.000 A 
ENDROOT
BRANCH  10  11
ATOM     11  N   UNL     1      22.022   3.044  50.628  0.00  0.00    +0.000 N 
ATOM     12  C   UNL     1      21.947   2.880  49.209  0.00  0.00    +0.000 C 
ATOM     13  C   UNL     1      22.354   4.357  49.104  0.00  0.00    +0.000 C 
ATOM     14  C   UNL     1      22.915   4.185  50.527  0.00  0.00    +0.000 C 
BRANCH  14  15
ATOM     15  C   UNL     1      22.685   5.331  51.575  0.00  0.00    +0.000 C 
ATOM     16  N   UNL     1      23.709   5.507  52.471  0.00  0.00    +0.000 N 
ATOM     17  O   UNL     1      21.718   6.093  51.607  0.00  0.00    +0.000 OA
ATOM     18  H   UNL     1      24.488   4.905  52.454  0.00  0.00    +0.000 HD
ATOM     19  H   UNL     1      23.665   6.236  53.131  0.00  0.00    +0.000 HD
ENDBRANCH  14  15
ENDBRANCH  10  11
BRANCH   1  21
ATOM     20  C   UNL     1      18.626   2.365  51.651  0.00  0.00    +0.000 C 
ATOM     21  O   UNL     1      19.751   2.925  52.330  0.00  0.00    +0.000 OA
ENDBRANCH   1  21
BRANCH   7  22
ATOM     22  N   UNL     1      25.261  -0.459  52.685  0.00  0.00    +0.000 N 
ATOM     23  H   UNL     1      25.271  -0.855  51.783  0.00  0.00    +0.000 HD
BRANCH  22  24
ATOM     24  C   UNL     1      26.462   0.113  53.189  0.00  0.00    +0.000 A 
ATOM     25  C   UNL     1      26.492   1.498  53.428  0.00  0.00    +0.000 A 
ATOM     26  C   UNL     1      27.670   2.121  53.833  0.00  0.00    +0.000 A 
ATOM     27  C   UNL     1      28.844   1.380  53.983  0.00  0.00    +0.000 A 
ATOM     28  C   UNL     1      28.839   0.017  53.701  0.00  0.00    +0.000 A 
ATOM     29 CL   UNL     1      30.305  -0.883  53.843  0.00  0.00    +0.000 Cl
ATOM     30  C   UNL     1      27.668  -0.606  53.284  0.00  0.00    +0.000 A 
ATOM     31  F   UNL     1      27.707  -1.893  52.902  0.00  0.00    +0.000 F 
ENDBRANCH  22  24
ENDBRANCH   7  22
TORSDOF 5
ENDMDL
MODEL 2
REMARK VINA RESULT:    -8.643      4.188      6.949
REMARK INTER + INTRA:         -12.283
REMARK INTER:                 -12.104
REMARK INTRA:                  -0.178
REMARK UNBOUND:                -1.113
REMARK  Name = 
REMARK  6 active torsions:
REMARK  status: ('A' for Active; 'I' for Inactive)
REMARK    1  A    between atoms: C_1  and  O_2
REMARK    2  A    between atoms: O_2  and  C_3
REMARK    3  A    between atoms: C_9  and  N_10
REMARK    4  A    between atoms: N_10  and  C_11
REMARK    5  A    between atoms: C_21  and  N_22
REMARK    6  A    between atoms: C_25  and  C_26
REMARK                            x       y       z     vdW  Elec       q    Type
REMARK                         _______ _______ _______ _____ _____    ______ ____
ROOT
ATOM      1  C   UNL     1      24.766   0.179  53.335  0.00  0.00    +0.000 A 
ATOM      2  C   UNL     1      23.637   0.663  52.653  0.00  0.00    +0.000 A 
ATOM      3  C   UNL     1      23.734   1.539  51.582  0.00  0.00    +0.000 A 
ATOM      4  N   UNL     1      22.612   1.878  50.945  0.00  0.00    +0.000 NA
ATOM      5  C   UNL     1      22.749   2.675  49.881  0.00  0.00    +0.000 A 
ATOM      6  N   UNL     1      23.896   3.166  49.411  0.00  0.00    +0.000 NA
ATOM      7  C   UNL     1      25.016   2.866  50.094  0.00  0.00    +0.000 A 
ATOM      8  C   UNL     1      24.997   2.001  51.206  0.00  0.00    +0.000 A 
ATOM      9  C   UNL     1      26.132   1.570  51.940  0.00  0.00    +0.000 A 
ATOM     10  C   UNL     1      26.045   0.651  52.998  0.00  0.00    +0.000 A 
ENDROOT
BRANCH  10  11
ATOM     11  N   UNL     1      27.233   0.163  53.581  0.00  0.00    +0.000 N 
ATOM     12  C   UNL     1      28.176   0.806  54.445  0.00  0.00    +0.000 C 
ATOM     13  C   UNL     1      29.030  -0.464  54.312  0.00  0.00    +0.000 C 
ATOM     14  C   UNL     1      28.236  -0.726  53.020  0.00  0.00    +0.000 C 
BRANCH  14  15
ATOM     15  C   UNL     1      27.758  -2.188  52.708  0.00  0.00    +0.000 C 
ATOM     16  N   UNL     1      28.562  -3.178  53.214  0.00  0.00    +0.000 N 
ATOM     17  O   UNL     1      26.720  -2.496  52.121  0.00  0.00    +0.000 OA
ATOM     18  H   UNL     1      29.392  -2.944  53.688  0.00  0.00    +0.000 HD
ATOM     19  H   UNL     1      28.307  -4.123  53.105  0.00  0.00    +0.000 HD
ENDBRANCH  14  15
ENDBRANCH  10  11
BRANCH   1  21
ATOM     20  C   UNL     1      23.314  -1.068  54.714  0.00  0.00    +0.000 C 
ATOM     21  O   UNL     1      24.656  -0.772  54.323  0.00  0.00    +0.000 OA
ENDBRANCH   1  21
BRANCH   7  22
ATOM     22  N   UNL     1      26.262   3.345  49.589  0.00  0.00    +0.000 N 
ATOM     23  H   UNL     1      26.965   2.690  49.374  0.00  0.00    +0.000 HD
BRANCH  22  24
ATOM     24  C   UNL     1      26.534   4.726  49.381  0.00  0.00    +0.000 A 
ATOM     25  C   UNL     1      25.567   5.663  49.786  0.00  0.00    +0.000 A 
ATOM     26  C   UNL     1      25.743   7.019  49.522  0.00  0.00    +0.000 A 
ATOM     27  C   UNL     1      26.871   7.462  48.829  0.00  0.00    +0.000 A 
ATOM     28  C   UNL     1      27.810   6.538  48.379  0.00  0.00    +0.000 A 
ATOM     29 CL   UNL     1      29.178   7.089  47.483  0.00  0.00    +0.000 Cl
ATOM     30  C   UNL     1      27.632   5.183  48.630  0.00  0.00    +0.000 A 
ATOM     31  F   UNL     1      28.482   4.296  48.088  0.00  0.00    +0.000 F 
ENDBRANCH  22  24
ENDBRANCH   7  22
TORSDOF 5
ENDMDL
MODEL 3
REMARK VINA RESULT:    -8.626      1.931      2.364
REMARK INTER + INTRA:         -12.261
REMARK INTER:                 -11.562
REMARK INTRA:                  -0.698
REMARK UNBOUND:                -1.113
REMARK  Name = 
REMARK  6 active torsions:
REMARK  status: ('A' for Active; 'I' for Inactive)
REMARK    1  A    between atoms: C_1  and  O_2
REMARK    2  A    between atoms: O_2  and  C_3
REMARK    3  A    between atoms: C_9  and  N_10
REMARK    4  A    between atoms: N_10  and  C_11
REMARK    5  A    between atoms: C_21  and  N_22
REMARK    6  A    between atoms: C_25  and  C_26
REMARK                            x       y       z     vdW  Elec       q    Type
REMARK                         _______ _______ _______ _____ _____    ______ ____
ROOT
ATOM      1  C   UNL     1      19.682   0.021  52.475  0.00  0.00    +0.000 A 
ATOM      2  C   UNL     1      20.131  -0.733  53.572  0.00  0.00    +0.000 A 
ATOM      3  C   UNL     1      21.470  -0.810  53.922  0.00  0.00    +0.000 A 
ATOM      4  N   UNL     1      21.792  -1.481  55.029  0.00  0.00    +0.000 NA
ATOM      5  C   UNL     1      23.084  -1.485  55.370  0.00  0.00    +0.000 A 
ATOM      6  N   UNL     1      24.073  -0.891  54.701  0.00  0.00    +0.000 NA
ATOM      7  C   UNL     1      23.748  -0.264  53.555  0.00  0.00    +0.000 A 
ATOM      8  C   UNL     1      22.411  -0.161  53.120  0.00  0.00    +0.000 A 
ATOM      9  C   UNL     1      21.967   0.539  51.970  0.00  0.00    +0.000 A 
ATOM     10  C   UNL     1      20.609   0.657  51.633  0.00  0.00    +0.000 A 
ENDROOT
BRANCH  10  11
ATOM     11  N   UNL     1      20.239   1.491  50.557  0.00  0.00    +0.000 N 
ATOM     12  C   UNL     1      20.018   1.184  49.178  0.00  0.00    +0.000 C 
ATOM     13  C   UNL     1      19.857   2.695  48.958  0.00  0.00    +0.000 C 
ATOM     14  C   UNL     1      20.646   2.855  50.268  0.00  0.00    +0.000 C 
BRANCH  14  15
ATOM     15  C   UNL     1      20.185   3.941  51.303  0.00  0.00    +0.000 C 
ATOM     16  N   UNL     1      20.905   5.109  51.274  0.00  0.00    +0.000 N 
ATOM     17  O   UNL     1      19.220   3.848  52.063  0.00  0.00    +0.000 OA
ATOM     18  H   UNL     1      21.677   5.196  50.669  0.00  0.00    +0.000 HD
ATOM     19  H   UNL     1      20.650   5.859  51.858  0.00  0.00    +0.000 HD
ENDBRANCH  14  15
ENDBRANCH  10  11
BRANCH   1  21
ATOM     20  C   UNL     1      17.517  -0.895  52.680  0.00  0.00    +0.000 C 
ATOM     21  O   UNL     1      18.340   0.173  52.208  0.00  0.00    +0.000 OA
ENDBRANCH   1  21
BRANCH   7  22
ATOM     22  N   UNL     1      24.780   0.415  52.842  0.00  0.00    +0.000 N 
ATOM     23  H   UNL     1      24.525   1.112  52.195  0.00  0.00    +0.000 HD
BRANCH  22  24
ATOM     24  C   UNL     1      26.163   0.132  53.026  0.00  0.00    +0.000 A 
ATOM     25  C   UNL     1      26.622  -1.162  52.725  0.00  0.00    +0.000 A 
ATOM     26  C   UNL     1      27.946  -1.517  52.974  0.00  0.00    +0.000 A 
ATOM     27  C   UNL     1      28.827  -0.599  53.549  0.00  0.00    +0.000 A 
ATOM     28  C   UNL     1      28.370   0.669  53.897  0.00  0.00    +0.000 A 
ATOM     29 CL   UNL     1      29.452   1.783  54.650  0.00  0.00    +0.000 Cl
ATOM     30  C   UNL     1      27.046   1.023  53.662  0.00  0.00    +0.000 A 
ATOM     31  F   UNL     1      26.591   2.204  54.110  0.00  0.00    +0.000 F 
ENDBRANCH  22  24
ENDBRANCH   7  22
TORSDOF 5
ENDMDL
MODEL 4
REMARK VINA RESULT:    -8.571      2.323      4.564
REMARK INTER + INTRA:         -12.189
REMARK INTER:                 -11.285
REMARK INTRA:                  -0.904
REMARK UNBOUND:                -1.113
REMARK  Name = 
REMARK  6 active torsions:
REMARK  status: ('A' for Active; 'I' for Inactive)
REMARK    1  A    between atoms: C_1  and  O_2
REMARK    2  A    between atoms: O_2  and  C_3
REMARK    3  A    between atoms: C_9  and  N_10
REMARK    4  A    between atoms: N_10  and  C_11
REMARK    5  A    between atoms: C_21  and  N_22
REMARK    6  A    between atoms: C_25  and  C_26
REMARK                            x       y       z     vdW  Elec       q    Type
REMARK                         _______ _______ _______ _____ _____    ______ ____
ROOT
ATOM      1  C   UNL     1      22.235   2.188  50.525  0.00  0.00    +0.000 A 
ATOM      2  C   UNL     1      23.237   2.791  49.747  0.00  0.00    +0.000 A 
ATOM      3  C   UNL     1      24.534   2.959  50.207  0.00  0.00    +0.000 A 
ATOM      4  N   UNL     1      25.437   3.467  49.366  0.00  0.00    +0.000 NA
ATOM      5  C   UNL     1      26.691   3.558  49.822  0.00  0.00    +0.000 A 
ATOM      6  N   UNL     1      27.112   3.202  51.036  0.00  0.00    +0.000 NA
ATOM      7  C   UNL     1      26.183   2.744  51.896  0.00  0.00    +0.000 A 
ATOM      8  C   UNL     1      24.839   2.566  51.511  0.00  0.00    +0.000 A 
ATOM      9  C   UNL     1      23.811   2.024  52.323  0.00  0.00    +0.000 A 
ATOM     10  C   UNL     1      22.506   1.812  51.850  0.00  0.00    +0.000 A 
ENDROOT
BRANCH  10  11
ATOM     11  N   UNL     1      21.581   1.135  52.672  0.00  0.00    +0.000 N 
ATOM     12  C   UNL     1      20.232   1.464  53.018  0.00  0.00    +0.000 C 
ATOM     13  C   UNL     1      20.277   0.262  53.973  0.00  0.00    +0.000 C 
ATOM     14  C   UNL     1      21.807   0.418  53.915  0.00  0.00    +0.000 C 
BRANCH  14  15
ATOM     15  C   UNL     1      22.696  -0.872  53.809  0.00  0.00    +0.000 C 
ATOM     16  N   UNL     1      23.816  -0.867  54.602  0.00  0.00    +0.000 N 
ATOM     17  O   UNL     1      22.435  -1.873  53.141  0.00  0.00    +0.000 OA
ATOM     18  H   UNL     1      24.033  -0.073  55.142  0.00  0.00    +0.000 HD
ATOM     19  H   UNL     1      24.401  -1.658  54.631  0.00  0.00    +0.000 HD
ENDBRANCH  14  15
ENDBRANCH  10  11
BRANCH   1  21
ATOM     20  C   UNL     1      20.966   1.624  48.617  0.00  0.00    +0.000 C 
ATOM     21  O   UNL     1      20.984   1.932  50.012  0.00  0.00    +0.000 OA
ENDBRANCH   1  21
BRANCH   7  22
ATOM     22  N   UNL     1      26.615   2.317  53.187  0.00  0.00    +0.000 N 
ATOM     23  H   UNL     1      26.277   2.795  53.979  0.00  0.00    +0.000 HD
BRANCH  22  24
ATOM     24  C   UNL     1      27.510   1.228  53.383  0.00  0.00    +0.000 A 
ATOM     25  C   UNL     1      28.822   1.513  53.799  0.00  0.00    +0.000 A 
ATOM     26  C   UNL     1      29.764   0.493  53.916  0.00  0.00    +0.000 A 
ATOM     27  C   UNL     1      29.421  -0.823  53.597  0.00  0.00    +0.000 A 
ATOM     28  C   UNL     1      28.139  -1.109  53.135  0.00  0.00    +0.000 A 
ATOM     29 CL   UNL     1      27.738  -2.729  52.698  0.00  0.00    +0.000 Cl
ATOM     30  C   UNL     1      27.201  -0.091  53.006  0.00  0.00    +0.000 A 
ATOM     31  F   UNL     1      26.010  -0.362  52.448  0.00  0.00    +0.000 F 
ENDBRANCH  22  24
ENDBRANCH   7  22
TORSDOF 5
ENDMDL
MODEL 5
REMARK VINA RESULT:    -8.508      3.159      5.919
REMARK INTER + INTRA:         -12.107
REMARK INTER:                 -11.097
REMARK INTRA:                  -1.010
REMARK UNBOUND:                -1.113
REMARK  Name = 
REMARK  6 active torsions:
REMARK  status: ('A' for Active; 'I' for Inactive)
REMARK    1  A    between atoms: C_1  and  O_2
REMARK    2  A    between atoms: O_2  and  C_3
REMARK    3  A    between atoms: C_9  and  N_10
REMARK    4  A    between atoms: N_10  and  C_11
REMARK    5  A    between atoms: C_21  and  N_22
REMARK    6  A    between atoms: C_25  and  C_26
REMARK                            x       y       z     vdW  Elec       q    Type
REMARK                         _______ _______ _______ _____ _____    ______ ____
ROOT
ATOM      1  C   UNL     1      23.646  -0.011  53.716  0.00  0.00    +0.000 A 
ATOM      2  C   UNL     1      22.313   0.417  53.599  0.00  0.00    +0.000 A 
ATOM      3  C   UNL     1      21.858   1.142  52.509  0.00  0.00    +0.000 A 
ATOM      4  N   UNL     1      20.558   1.432  52.446  0.00  0.00    +0.000 NA
ATOM      5  C   UNL     1      20.143   2.080  51.352  0.00  0.00    +0.000 A 
ATOM      6  N   UNL     1      20.911   2.469  50.334  0.00  0.00    +0.000 NA
ATOM      7  C   UNL     1      22.230   2.224  50.432  0.00  0.00    +0.000 A 
ATOM      8  C   UNL     1      22.773   1.511  51.520  0.00  0.00    +0.000 A 
ATOM      9  C   UNL     1      24.134   1.143  51.673  0.00  0.00    +0.000 A 
ATOM     10  C   UNL     1      24.593   0.372  52.752  0.00  0.00    +0.000 A 
ENDROOT
BRANCH  10  11
ATOM     11  N   UNL     1      25.931  -0.074  52.756  0.00  0.00    +0.000 N 
ATOM     12  C   UNL     1      26.469  -1.400  52.757  0.00  0.00    +0.000 C 
ATOM     13  C   UNL     1      27.849  -0.746  52.915  0.00  0.00    +0.000 C 
ATOM     14  C   UNL     1      27.082   0.476  53.450  0.00  0.00    +0.000 C 
BRANCH  14  15
ATOM     15  C   UNL     1      27.534   1.910  52.997  0.00  0.00    +0.000 C 
ATOM     16  N   UNL     1      28.145   2.658  53.972  0.00  0.00    +0.000 N 
ATOM     17  O   UNL     1      27.439   2.368  51.858  0.00  0.00    +0.000 OA
ATOM     18  H   UNL     1      28.228   2.301  54.886  0.00  0.00    +0.000 HD
ATOM     19  H   UNL     1      28.501   3.550  53.758  0.00  0.00    +0.000 HD
ENDBRANCH  14  15
ENDBRANCH  10  11
BRANCH   1  21
ATOM     20  C   UNL     1      22.991  -1.502  55.424  0.00  0.00    +0.000 C 
ATOM     21  O   UNL     1      24.053  -0.822  54.751  0.00  0.00    +0.000 OA
ENDBRANCH   1  21
BRANCH   7  22
ATOM     22  N   UNL     1      23.067   2.593  49.337  0.00  0.00    +0.000 N 
ATOM     23  H   UNL     1      23.201   1.944  48.608  0.00  0.00    +0.000 HD
BRANCH  22  24
ATOM     24  C   UNL     1      23.717   3.856  49.251  0.00  0.00    +0.000 A 
ATOM     25  C   UNL     1      22.925   5.000  49.054  0.00  0.00    +0.000 A 
ATOM     26  C   UNL     1      23.517   6.247  48.870  0.00  0.00    +0.000 A 
ATOM     27  C   UNL     1      24.908   6.372  48.855  0.00  0.00    +0.000 A 
ATOM     28  C   UNL     1      25.703   5.238  48.998  0.00  0.00    +0.000 A 
ATOM     29 CL   UNL     1      27.420   5.394  48.932  0.00  0.00    +0.000 Cl
ATOM     30  C   UNL     1      25.115   3.990  49.169  0.00  0.00    +0.000 A 
ATOM     31  F   UNL     1      25.891   2.894  49.187  0.00  0.00    +0.000 F 
ENDBRANCH  22  24
ENDBRANCH   7  22
TORSDOF 5
ENDMDL
MODEL 6
REMARK VINA RESULT:    -8.398      3.837      6.402
REMARK INTER + INTRA:         -11.966
REMARK INTER:                 -11.723
REMARK INTRA:                  -0.243
REMARK UNBOUND:                -1.113
REMARK  Name = 
REMARK  6 active torsions:
REMARK  status: ('A' for Active; 'I' for Inactive)
REMARK    1  A    between atoms: C_1  and  O_2
REMARK    2  A    between atoms: O_2  and  C_3
REMARK    3  A    between atoms: C_9  and  N_10
REMARK    4  A    between atoms: N_10  and  C_11
REMARK    5  A    between atoms: C_21  and  N_22
REMARK    6  A    between atoms: C_25  and  C_26
REMARK                            x       y       z     vdW  Elec       q    Type
REMARK                         _______ _______ _______ _____ _____    ______ ____
ROOT
ATOM      1  C   UNL     1      24.359   0.302  53.350  0.00  0.00    +0.000 A 
ATOM      2  C   UNL     1      23.130   0.872  52.978  0.00  0.00    +0.000 A 
ATOM      3  C   UNL     1      23.023   1.809  51.963  0.00  0.00    +0.000 A 
ATOM      4  N   UNL     1      21.803   2.231  51.624  0.00  0.00    +0.000 NA
ATOM      5  C   UNL     1      21.731   3.089  50.601  0.00  0.00    +0.000 A 
ATOM      6  N   UNL     1      22.762   3.564  49.903  0.00  0.00    +0.000 NA
ATOM      7  C   UNL     1      23.993   3.178  50.288  0.00  0.00    +0.000 A 
ATOM      8  C   UNL     1      24.186   2.245  51.326  0.00  0.00    +0.000 A 
ATOM      9  C   UNL     1      25.436   1.725  51.749  0.00  0.00    +0.000 A 
ATOM     10  C   UNL     1      25.548   0.744  52.748  0.00  0.00    +0.000 A 
ENDROOT
BRANCH  10  11
ATOM     11  N   UNL     1      26.812   0.175  53.010  0.00  0.00    +0.000 N 
ATOM     12  C   UNL     1      27.277  -1.168  52.848  0.00  0.00    +0.000 C 
ATOM     13  C   UNL     1      28.578  -0.705  53.522  0.00  0.00    +0.000 C 
ATOM     14  C   UNL     1      27.736   0.447  54.098  0.00  0.00    +0.000 C 
BRANCH  14  15
ATOM     15  C   UNL     1      28.350   1.891  54.130  0.00  0.00    +0.000 C 
ATOM     16  N   UNL     1      29.716   1.940  54.008  0.00  0.00    +0.000 N 
ATOM     17  O   UNL     1      27.713   2.943  54.190  0.00  0.00    +0.000 OA
ATOM     18  H   UNL     1      30.236   1.105  53.957  0.00  0.00    +0.000 HD
ATOM     19  H   UNL     1      30.176   2.809  53.971  0.00  0.00    +0.000 HD
ENDBRANCH  14  15
ENDBRANCH  10  11
BRANCH   1  21
ATOM     20  C   UNL     1      23.167  -1.135  54.792  0.00  0.00    +0.000 C 
ATOM     21  O   UNL     1      24.431  -0.705  54.285  0.00  0.00    +0.000 OA
ENDBRANCH   1  21
BRANCH   7  22
ATOM     22  N   UNL     1      25.111   3.639  49.530  0.00  0.00    +0.000 N 
ATOM     23  H   UNL     1      25.554   3.011  48.915  0.00  0.00    +0.000 HD
BRANCH  22  24
ATOM     24  C   UNL     1      25.614   4.967  49.624  0.00  0.00    +0.000 A 
ATOM     25  C   UNL     1      24.813   5.940  50.247  0.00  0.00    +0.000 A 
ATOM     26  C   UNL     1      25.218   7.272  50.281  0.00  0.00    +0.000 A 
ATOM     27  C   UNL     1      26.415   7.662  49.676  0.00  0.00    +0.000 A 
ATOM     28  C   UNL     1      27.191   6.716  49.013  0.00  0.00    +0.000 A 
ATOM     29 CL   UNL     1      28.645   7.213  48.226  0.00  0.00    +0.000 Cl
ATOM     30  C   UNL     1      26.783   5.387  48.965  0.00  0.00    +0.000 A 
ATOM     31  F   UNL     1      27.480   4.512  48.222  0.00  0.00    +0.000 F 
ENDBRANCH  22  24
ENDBRANCH   7  22
TORSDOF 5
ENDMDL
MODEL 7
REMARK VINA RESULT:    -8.261      2.344      3.386
REMARK INTER + INTRA:         -11.789
REMARK INTER:                 -10.738
REMARK INTRA:                  -1.051
REMARK UNBOUND:                -1.113
REMARK  Name = 
REMARK  6 active torsions:
REMARK  status: ('A' for Active; 'I' for Inactive)
REMARK    1  A    between atoms: C_1  and  O_2
REMARK    2  A    between atoms: O_2  and  C_3
REMARK    3  A    between atoms: C_9  and  N_10
REMARK    4  A    between atoms: N_10  and  C_11
REMARK    5  A    between atoms: C_21  and  N_22
REMARK    6  A    between atoms: C_25  and  C_26
REMARK                            x       y       z     vdW  Elec       q    Type
REMARK                         _______ _______ _______ _____ _____    ______ ____
ROOT
ATOM      1  C   UNL     1      22.894   3.226  48.967  0.00  0.00    +0.000 A 
ATOM      2  C   UNL     1      22.008   2.184  49.286  0.00  0.00    +0.000 A 
ATOM      3  C   UNL     1      22.131   1.432  50.444  0.00  0.00    +0.000 A 
ATOM      4  N   UNL     1      21.193   0.519  50.702  0.00  0.00    +0.000 NA
ATOM      5  C   UNL     1      21.310  -0.145  51.857  0.00  0.00    +0.000 A 
ATOM      6  N   UNL     1      22.278   0.015  52.759  0.00  0.00    +0.000 NA
ATOM      7  C   UNL     1      23.251   0.897  52.464  0.00  0.00    +0.000 A 
ATOM      8  C   UNL     1      23.209   1.683  51.295  0.00  0.00    +0.000 A 
ATOM      9  C   UNL     1      24.146   2.686  50.938  0.00  0.00    +0.000 A 
ATOM     10  C   UNL     1      24.004   3.480  49.789  0.00  0.00    +0.000 A 
ENDROOT
BRANCH  10  11
ATOM     11  N   UNL     1      24.898   4.551  49.581  0.00  0.00    +0.000 N 
ATOM     12  C   UNL     1      26.225   4.563  49.045  0.00  0.00    +0.000 C 
ATOM     13  C   UNL     1      26.265   6.054  49.413  0.00  0.00    +0.000 C 
ATOM     14  C   UNL     1      25.137   5.723  50.406  0.00  0.00    +0.000 C 
BRANCH  14  15
ATOM     15  C   UNL     1      23.933   6.720  50.544  0.00  0.00    +0.000 C 
ATOM     16  N   UNL     1      24.019   7.585  51.606  0.00  0.00    +0.000 N 
ATOM     17  O   UNL     1      22.987   6.820  49.762  0.00  0.00    +0.000 OA
ATOM     18  H   UNL     1      24.772   7.517  52.237  0.00  0.00    +0.000 HD
ATOM     19  H   UNL     1      23.329   8.275  51.736  0.00  0.00    +0.000 HD
ENDBRANCH  14  15
ENDBRANCH  10  11
BRANCH   1  21
ATOM     20  C   UNL     1      21.918   3.431  46.829  0.00  0.00    +0.000 C 
ATOM     21  O   UNL     1      22.693   4.031  47.869  0.00  0.00    +0.000 OA
ENDBRANCH   1  21
BRANCH   7  22
ATOM     22  N   UNL     1      24.277   1.117  53.431  0.00  0.00    +0.000 N 
ATOM     23  H   UNL     1      24.071   1.674  54.217  0.00  0.00    +0.000 HD
BRANCH  22  24
ATOM     24  C   UNL     1      25.584   0.568  53.313  0.00  0.00    +0.000 A 
ATOM     25  C   UNL     1      25.707  -0.781  52.938  0.00  0.00    +0.000 A 
ATOM     26  C   UNL     1      26.958  -1.392  52.898  0.00  0.00    +0.000 A 
ATOM     27  C   UNL     1      28.104  -0.677  53.253  0.00  0.00    +0.000 A 
ATOM     28  C   UNL     1      27.988   0.645  53.673  0.00  0.00    +0.000 A 
ATOM     29 CL   UNL     1      29.403   1.508  54.155  0.00  0.00    +0.000 Cl
ATOM     30  C   UNL     1      26.740   1.254  53.727  0.00  0.00    +0.000 A 
ATOM     31  F   UNL     1      26.631   2.487  54.246  0.00  0.00    +0.000 F 
ENDBRANCH  22  24
ENDBRANCH   7  22
TORSDOF 5
ENDMDL
MODEL 8
REMARK VINA RESULT:    -8.227      3.599      5.163
REMARK INTER + INTRA:         -11.745
REMARK INTER:                 -10.643
REMARK INTRA:                  -1.102
REMARK UNBOUND:                -1.113
REMARK  Name = 
REMARK  6 active torsions:
REMARK  status: ('A' for Active; 'I' for Inactive)
REMARK    1  A    between atoms: C_1  and  O_2
REMARK    2  A    between atoms: O_2  and  C_3
REMARK    3  A    between atoms: C_9  and  N_10
REMARK    4  A    between atoms: N_10  and  C_11
REMARK    5  A    between atoms: C_21  and  N_22
REMARK    6  A    between atoms: C_25  and  C_26
REMARK                            x       y       z     vdW  Elec       q    Type
REMARK                         _______ _______ _______ _____ _____    ______ ____
ROOT
ATOM      1  C   UNL     1      23.009   0.769  53.146  0.00  0.00    +0.000 A 
ATOM      2  C   UNL     1      24.266   0.827  53.769  0.00  0.00    +0.000 A 
ATOM      3  C   UNL     1      25.378   1.376  53.149  0.00  0.00    +0.000 A 
ATOM      4  N   UNL     1      26.509   1.462  53.851  0.00  0.00    +0.000 NA
ATOM      5  C   UNL     1      27.545   2.051  53.244  0.00  0.00    +0.000 A 
ATOM      6  N   UNL     1      27.549   2.545  52.005  0.00  0.00    +0.000 NA
ATOM      7  C   UNL     1      26.421   2.403  51.285  0.00  0.00    +0.000 A 
ATOM      8  C   UNL     1      25.256   1.835  51.837  0.00  0.00    +0.000 A 
ATOM      9  C   UNL     1      24.005   1.711  51.180  0.00  0.00    +0.000 A 
ATOM     10  C   UNL     1      22.864   1.195  51.816  0.00  0.00    +0.000 A 
ENDROOT
BRANCH  10  11
ATOM     11  N   UNL     1      21.625   1.240  51.143  0.00  0.00    +0.000 N 
ATOM     12  C   UNL     1      21.038   0.321  50.217  0.00  0.00    +0.000 C 
ATOM     13  C   UNL     1      19.913   1.352  50.042  0.00  0.00    +0.000 C 
ATOM     14  C   UNL     1      20.928   2.380  50.573  0.00  0.00    +0.000 C 
BRANCH  14  15
ATOM     15  C   UNL     1      20.441   3.466  51.597  0.00  0.00    +0.000 C 
ATOM     16  N   UNL     1      20.432   4.751  51.115  0.00  0.00    +0.000 N 
ATOM     17  O   UNL     1      20.021   3.246  52.734  0.00  0.00    +0.000 OA
ATOM     18  H   UNL     1      20.763   4.938  50.207  0.00  0.00    +0.000 HD
ATOM     19  H   UNL     1      20.095   5.485  51.677  0.00  0.00    +0.000 HD
ENDBRANCH  14  15
ENDBRANCH  10  11
BRANCH   1  21
ATOM     20  C   UNL     1      22.134  -0.781  54.694  0.00  0.00    +0.000 C 
ATOM     21  O   UNL     1      21.894   0.320  53.817  0.00  0.00    +0.000 OA
ENDBRANCH   1  21
BRANCH   7  22
ATOM     22  N   UNL     1      26.386   2.960  49.971  0.00  0.00    +0.000 N 
ATOM     23  H   UNL     1      26.400   2.348  49.200  0.00  0.00    +0.000 HD
BRANCH  22  24
ATOM     24  C   UNL     1      26.332   4.360  49.726  0.00  0.00    +0.000 A 
ATOM     25  C   UNL     1      25.231   5.081  50.221  0.00  0.00    +0.000 A 
ATOM     26  C   UNL     1      25.083   6.435  49.929  0.00  0.00    +0.000 A 
ATOM     27  C   UNL     1      26.016   7.088  49.121  0.00  0.00    +0.000 A 
ATOM     28  C   UNL     1      27.082   6.373  48.584  0.00  0.00    +0.000 A 
ATOM     29 CL   UNL     1      28.204   7.177  47.548  0.00  0.00    +0.000 Cl
ATOM     30  C   UNL     1      27.226   5.019  48.863  0.00  0.00    +0.000 A 
ATOM     31  F   UNL     1      28.190   4.319  48.243  0.00  0.00    +0.000 F 
ENDBRANCH  22  24
ENDBRANCH   7  22
TORSDOF 5
ENDMDL
MODEL 9
REMARK VINA RESULT:    -8.051      3.829      6.256
REMARK INTER + INTRA:         -11.517
REMARK INTER:                 -10.553
REMARK INTRA:                  -0.964
REMARK UNBOUND:                -1.113
REMARK  Name = 
REMARK  6 active torsions:
REMARK  status: ('A' for Active; 'I' for Inactive)
REMARK    1  A    between atoms: C_1  and  O_2
REMARK    2  A    between atoms: O_2  and  C_3
REMARK    3  A    between atoms: C_9  and  N_10
REMARK    4  A    between atoms: N_10  and  C_11
REMARK    5  A    between atoms: C_21  and  N_22
REMARK    6  A    between atoms: C_25  and  C_26
REMARK                            x       y       z     vdW  Elec       q    Type
REMARK                         _______ _______ _______ _____ _____    ______ ____
ROOT
ATOM      1  C   UNL     1      25.206   1.462  52.021  0.00  0.00    +0.000 A 
ATOM      2  C   UNL     1      25.078   0.441  52.978  0.00  0.00    +0.000 A 
ATOM      3  C   UNL     1      23.858   0.098  53.540  0.00  0.00    +0.000 A 
ATOM      4  N   UNL     1      23.822  -0.940  54.377  0.00  0.00    +0.000 NA
ATOM      5  C   UNL     1      22.620  -1.280  54.853  0.00  0.00    +0.000 A 
ATOM      6  N   UNL     1      21.466  -0.672  54.577  0.00  0.00    +0.000 NA
ATOM      7  C   UNL     1      21.519   0.409  53.777  0.00  0.00    +0.000 A 
ATOM      8  C   UNL     1      22.725   0.834  53.185  0.00  0.00    +0.000 A 
ATOM      9  C   UNL     1      22.865   1.912  52.274  0.00  0.00    +0.000 A 
ATOM     10  C   UNL     1      24.090   2.238  51.669  0.00  0.00    +0.000 A 
ENDROOT
BRANCH  10  11
ATOM     11  N   UNL     1      24.116   3.230  50.667  0.00  0.00    +0.000 N 
ATOM     12  C   UNL     1      24.437   3.137  49.276  0.00  0.00    +0.000 C 
ATOM     13  C   UNL     1      24.312   4.667  49.234  0.00  0.00    +0.000 C 
ATOM     14  C   UNL     1      24.550   4.614  50.754  0.00  0.00    +0.000 C 
BRANCH  14  15
ATOM     15  C   UNL     1      23.695   5.542  51.687  0.00  0.00    +0.000 C 
ATOM     16  N   UNL     1      24.364   6.630  52.189  0.00  0.00    +0.000 N 
ATOM     17  O   UNL     1      22.496   5.403  51.938  0.00  0.00    +0.000 OA
ATOM     18  H   UNL     1      25.321   6.753  51.993  0.00  0.00    +0.000 HD
ATOM     19  H   UNL     1      23.886   7.288  52.744  0.00  0.00    +0.000 HD
ENDBRANCH  14  15
ENDBRANCH  10  11
BRANCH   1  21
ATOM     20  C   UNL     1      27.448   2.153  52.269  0.00  0.00    +0.000 C 
ATOM     21  O   UNL     1      26.405   1.714  51.396  0.00  0.00    +0.000 OA
ENDBRANCH   1  21
BRANCH   7  22
ATOM     22  N   UNL     1      20.293   1.053  53.432  0.00  0.00    +0.000 N 
ATOM     23  H   UNL     1      20.036   1.867  53.922  0.00  0.00    +0.000 HD
BRANCH  22  24
ATOM     24  C   UNL     1      19.427   0.571  52.411  0.00  0.00    +0.000 A 
ATOM     25  C   UNL     1      19.450   1.213  51.161  0.00  0.00    +0.000 A 
ATOM     26  C   UNL     1      18.557   0.840  50.159  0.00  0.00    +0.000 A 
ATOM     27  C   UNL     1      17.611  -0.159  50.393  0.00  0.00    +0.000 A 
ATOM     28  C   UNL     1      17.545  -0.766  51.644  0.00  0.00    +0.000 A 
ATOM     29 CL   UNL     1      16.342  -1.967  51.941  0.00  0.00    +0.000 Cl
ATOM     30  C   UNL     1      18.426  -0.388  52.651  0.00  0.00    +0.000 A 
ATOM     31  F   UNL     1      18.273  -0.897  53.884  0.00  0.00    +0.000 F 
ENDBRANCH  22  24
ENDBRANCH   7  22
TORSDOF 5
ENDMDL
