REMARK  Name = 
REMARK  13 active torsions:
REMARK  status: ('A' for Active; 'I' for Inactive)
REMARK    1  A    between atoms: C_1  and  C_2
REMARK    2  A    between atoms: C_3  and  C_4
REMARK    3  A    between atoms: N_6  and  C_7
REMARK    4  A    between atoms: C_10  and  O_11
REMARK    5  A    between atoms: O_11  and  C_12
REMARK    6  A    between atoms: C_15  and  C_16
REMARK    7  A    between atoms: N_18  and  C_19
REMARK    8  A    between atoms: C_32  and  O_33
REMARK    9  A    between atoms: O_33  and  C_34
REMARK   10  A    between atoms: C_34  and  C_35
REMARK   11  A    between atoms: C_35  and  C_36
REMARK   12  A    between atoms: C_36  and  N_37
REMARK   13  A    between atoms: N_40  and  C_41
REMARK                            x       y       z     vdW  Elec       q    Type
REMARK                         _______ _______ _______ _____ _____    ______ ____
ROOT
ATOM      1  C   UNL     1       2.956  -2.601   1.039  0.00  0.00    +0.000 A 
ATOM      2  C   UNL     1       3.493  -3.668   0.249  0.00  0.00    +0.000 A 
ATOM      3  C   UNL     1       4.901  -3.813   0.012  0.00  0.00    +0.000 A 
ATOM      4  C   UNL     1       5.534  -4.808  -0.810  0.00  0.00    +0.000 A 
ATOM      5  C   UNL     1       6.925  -4.923  -0.788  0.00  0.00    +0.000 A 
ATOM      6  C   UNL     1       7.647  -3.975  -0.096  0.00  0.00    +0.000 A 
ATOM      7  N   UNL     1       7.085  -2.958   0.578  0.00  0.00    +0.000 NA
ATOM      8  C   UNL     1       5.747  -2.892   0.642  0.00  0.00    +0.000 A 
ATOM      9  C   UNL     1       5.204  -1.846   1.381  0.00  0.00    +0.000 A 
ATOM     10  C   UNL     1       3.824  -1.656   1.602  0.00  0.00    +0.000 A 
ENDROOT
BRANCH   1  13
ATOM     11  C   UNL     1       0.873  -1.738   0.217  0.00  0.00    +0.000 C 
ATOM     12  O   UNL     1       1.376  -0.776  -0.354  0.00  0.00    +0.000 OA
ATOM     13  N   UNL     1       1.539  -2.553   1.135  0.00  0.00    +0.000 N 
ATOM     14  H   UNL     1       1.050  -3.069   1.815  0.00  0.00    +0.000 HD
BRANCH  11  17
ATOM     15  C   UNL     1      -2.768  -2.287  -1.509  0.00  0.00    +0.000 C 
ATOM     16  C   UNL     1      -1.544  -2.273  -0.699  0.00  0.00    +0.000 C 
ATOM     17  C   UNL     1      -0.473  -2.104  -0.177  0.00  0.00    +0.000 C 
ENDBRANCH  11  17
ENDBRANCH   1  13
BRANCH   4  18
ATOM     18  O   UNL     1       4.762  -5.664  -1.596  0.00  0.00    +0.000 OA
BRANCH  18  19
ATOM     19  C   UNL     1       5.325  -6.217  -2.742  0.00  0.00    +0.000 A 
ATOM     20  C   UNL     1       5.142  -7.577  -2.963  0.00  0.00    +0.000 A 
ATOM     21  C   UNL     1       5.739  -8.191  -4.077  0.00  0.00    +0.000 A 
ATOM     22  C   UNL     1       6.551  -7.488  -5.000  0.00  0.00    +0.000 A 
ATOM     23  C   UNL     1       6.662  -6.107  -4.820  0.00  0.00    +0.000 A 
ATOM     24  C   UNL     1       6.029  -5.478  -3.709  0.00  0.00    +0.000 A 
BRANCH  22  25
ATOM     25  C   UNL     1       7.203  -8.330  -6.074  0.00  0.00    +0.000 C 
ATOM     26  O   UNL     1       6.790  -9.494  -6.126  0.00  0.00    +0.000 OA
ATOM     27  N   UNL     1       8.245  -7.859  -6.873  0.00  0.00    +0.000 N 
ATOM     28  H   UNL     1       8.442  -6.895  -6.877  0.00  0.00    +0.000 HD
BRANCH  27  29
ATOM     29  C   UNL     1       9.036  -8.728  -7.688  0.00  0.00    +0.000 A 
ATOM     30  C   UNL     1       8.589  -9.984  -8.096  0.00  0.00    +0.000 A 
ATOM     31  C   UNL     1       9.483 -10.922  -8.611  0.00  0.00    +0.000 A 
ATOM     32  C   UNL     1      10.800 -10.555  -8.808  0.00  0.00    +0.000 A 
ATOM     33  C   UNL     1      11.140  -9.241  -8.528  0.00  0.00    +0.000 A 
ATOM     34  N   UNL     1      10.296  -8.320  -7.972  0.00  0.00    +0.000 NA
ENDBRANCH  27  29
ENDBRANCH  22  25
ENDBRANCH  18  19
ENDBRANCH   4  18
BRANCH  10  35
ATOM     35  O   UNL     1       3.619  -0.545   2.347  0.00  0.00    +0.000 OA
BRANCH  35  36
ATOM     36  C   UNL     1       2.412  -0.129   2.993  0.00  0.00    +0.000 C 
BRANCH  36  37
ATOM     37  C   UNL     1       2.265  -0.797   4.357  0.00  0.00    +0.000 C 
BRANCH  37  38
ATOM     38  C   UNL     1       1.214  -0.166   5.292  0.00  0.00    +0.000 C 
BRANCH  38  39
ATOM     39  N   UNL     1      -0.211  -0.192   4.879  0.00  0.00    +0.000 N 
ATOM     40  C   UNL     1      -0.674  -1.570   4.630  0.00  0.00    +0.000 C 
ATOM     41  C   UNL     1      -2.134  -1.973   4.953  0.00  0.00    +0.000 C 
ATOM     42  N   UNL     1      -2.730  -1.237   6.036  0.00  0.00    +0.000 N 
ATOM     43  C   UNL     1      -3.539  -1.903   7.015  0.00  0.00    +0.000 C 
ATOM     44  C   UNL     1      -2.509   0.186   6.062  0.00  0.00    +0.000 C 
ATOM     45  C   UNL     1      -1.019   0.557   5.875  0.00  0.00    +0.000 C 
ATOM     46  H   UNL     1      -0.327   0.281   3.984  0.00  0.00    +0.000 HD
ATOM     47  H   UNL     1      -2.795  -1.464   7.028  0.00  0.00    +0.000 HD
ENDBRANCH  38  39
ENDBRANCH  37  38
ENDBRANCH  36  37
ENDBRANCH  35  36
ENDBRANCH  10  35
TORSDOF 11
