REMARK  Name = 
REMARK  13 active torsions:
REMARK  status: ('A' for Active; 'I' for Inactive)
REMARK    1  A    between atoms: C_1  and  O_2
REMARK    2  A    between atoms: O_2  and  C_3
REMARK    3  A    between atoms: C_6  and  C_7
REMARK    4  A    between atoms: C_8  and  C_9
REMARK    5  A    between atoms: N_11  and  C_12
REMARK    6  A    between atoms: C_15  and  N_16
REMARK    7  A    between atoms: N_16  and  C_17
REMARK    8  A    between atoms: C_30  and  O_31
REMARK    9  A    between atoms: O_31  and  C_32
REMARK   10  A    between atoms: C_37  and  O_38
REMARK   11  A    between atoms: O_38  and  C_39
REMARK   12  A    between atoms: C_40  and  O_41
REMARK   13  A    between atoms: O_41  and  C_42
REMARK                            x       y       z     vdW  Elec       q    Type
REMARK                         _______ _______ _______ _____ _____    ______ ____
ROOT
ATOM      1  C   UNL     1       3.158   2.999  12.024  0.00  0.00    +0.000 A 
ATOM      2  C   UNL     1       2.895   1.702  12.480  0.00  0.00    +0.000 A 
ATOM      3  C   UNL     1       3.267   0.614  11.661  0.00  0.00    +0.000 A 
ATOM      4  C   UNL     1       3.317  -0.731  12.057  0.00  0.00    +0.000 A 
ATOM      5  N   UNL     1       4.551  -1.208  12.229  0.00  0.00    +0.000 NA
ATOM      6  C   UNL     1       5.419  -0.777  11.308  0.00  0.00    +0.000 A 
ATOM      7  N   UNL     1       5.129   0.108  10.330  0.00  0.00    +0.000 NA
ATOM      8  C   UNL     1       4.075   0.900  10.569  0.00  0.00    +0.000 A 
ATOM      9  C   UNL     1       3.971   2.139   9.941  0.00  0.00    +0.000 A 
ATOM     10  C   UNL     1       3.513   3.214  10.686  0.00  0.00    +0.000 A 
ENDROOT
BRANCH   1  13
ATOM     11  C   UNL     1       2.815   4.491  14.035  0.00  0.00    +0.000 C 
ATOM     12  O   UNL     1       3.370   5.324  14.754  0.00  0.00    +0.000 OA
ATOM     13  N   UNL     1       3.424   4.059  12.906  0.00  0.00    +0.000 N 
ATOM     14  H   UNL     1       4.210   4.594  12.653  0.00  0.00    +0.000 HD
BRANCH  11  16
ATOM     15  C   UNL     1       0.748   4.648  15.258  0.00  0.00    +0.000 C 
ATOM     16  C   UNL     1       1.429   4.031  14.281  0.00  0.00    +0.000 C 
BRANCH  15  20
ATOM     17  C   UNL     1      -3.251   3.652  16.344  0.00  0.00    +0.000 A 
ATOM     18  C   UNL     1      -2.972   4.549  15.312  0.00  0.00    +0.000 A 
ATOM     19  C   UNL     1      -1.652   4.819  14.955  0.00  0.00    +0.000 A 
ATOM     20  C   UNL     1      -0.586   4.244  15.660  0.00  0.00    +0.000 A 
ATOM     21  C   UNL     1      -0.847   3.332  16.700  0.00  0.00    +0.000 A 
ATOM     22  C   UNL     1      -2.189   2.992  16.995  0.00  0.00    +0.000 A 
BRANCH  17  24
ATOM     23  C   UNL     1      -5.587   3.630  15.899  0.00  0.00    +0.000 C 
ATOM     24  O   UNL     1      -4.520   3.441  16.818  0.00  0.00    +0.000 OA
ENDBRANCH  17  24
BRANCH  21  25
ATOM     25  O   UNL     1       0.103   2.655  17.430  0.00  0.00    +0.000 OA
ATOM     26  C   UNL     1       1.304   3.330  17.789  0.00  0.00    +0.000 C 
ENDBRANCH  21  25
BRANCH  22  27
ATOM     27  O   UNL     1      -2.370   2.029  17.966  0.00  0.00    +0.000 OA
ATOM     28  C   UNL     1      -3.450   1.126  17.739  0.00  0.00    +0.000 C 
ENDBRANCH  22  27
ENDBRANCH  15  20
ENDBRANCH  11  16
ENDBRANCH   1  13
BRANCH   4  29
ATOM     29  N   UNL     1       2.534  -1.633  11.204  0.00  0.00    +0.000 N 
ATOM     30  H   UNL     1       2.263  -1.314  10.313  0.00  0.00    +0.000 HD
BRANCH  29  31
ATOM     31  C   UNL     1       2.146  -2.942  11.600  0.00  0.00    +0.000 A 
ATOM     32  C   UNL     1       2.463  -4.065  10.805  0.00  0.00    +0.000 A 
ATOM     33  C   UNL     1       2.002  -5.339  11.155  0.00  0.00    +0.000 A 
ATOM     34  C   UNL     1       1.194  -5.489  12.279  0.00  0.00    +0.000 A 
ATOM     35  F   UNL     1       0.735  -6.710  12.578  0.00  0.00    +0.000 F 
ATOM     36  C   UNL     1       0.856  -4.390  13.053  0.00  0.00    +0.000 A 
ATOM     37 CL   UNL     1      -0.186  -4.557  14.415  0.00  0.00    +0.000 Cl
ATOM     38  C   UNL     1       1.343  -3.124  12.719  0.00  0.00    +0.000 A 
ENDBRANCH  29  31
ENDBRANCH   4  29
BRANCH  10  39
ATOM     39  O   UNL     1       3.638   4.522  10.301  0.00  0.00    +0.000 OA
BRANCH  39  40
ATOM     40  C   UNL     1       3.079   4.939   9.054  0.00  0.00    +0.000 C 
ATOM     41  C   UNL     1       1.599   4.681   8.831  0.00  0.00    +0.000 C 
ATOM     42  C   UNL     1       1.200   5.794   7.876  0.00  0.00    +0.000 C 
ATOM     43  O   UNL     1       2.054   6.909   8.145  0.00  0.00    +0.000 OA
ATOM     44  C   UNL     1       3.090   6.471   9.032  0.00  0.00    +0.000 C 
ENDBRANCH  39  40
ENDBRANCH  10  39
TORSDOF 10
