REMARK  Name = 
REMARK  5 active torsions:
REMARK  status: ('A' for Active; 'I' for Inactive)
REMARK    1  A    between atoms: C_1  and  O_2
REMARK    2  A    between atoms: O_2  and  C_3
REMARK    3  A    between atoms: C_5  and  O_6
REMARK    4  A    between atoms: O_6  and  C_7
REMARK    5  A    between atoms: N_15  and  C_16
REMARK                            x       y       z     vdW  Elec       q    Type
REMARK                         _______ _______ _______ _____ _____    ______ ____
ROOT
ATOM      1  C   UNL     1       0.545  -1.221   2.135  0.00  0.00    +0.000 A 
ATOM      2  C   UNL     1       1.902  -1.517   2.167  0.00  0.00    +0.000 A 
ATOM      3  C   UNL     1       2.384  -2.497   3.044  0.00  0.00    +0.000 A 
ATOM      4  C   UNL     1       1.461  -3.277   3.818  0.00  0.00    +0.000 A 
ATOM      5  C   UNL     1       1.761  -4.364   4.671  0.00  0.00    +0.000 A 
ATOM      6  N   UNL     1       3.080  -4.881   4.742  0.00  0.00    +0.000 N 
ATOM      7  N   UNL     1       0.815  -5.006   5.391  0.00  0.00    +0.000 NA
ATOM      8  C   UNL     1      -0.437  -4.572   5.275  0.00  0.00    +0.000 A 
ATOM      9  N   UNL     1      -0.840  -3.568   4.500  0.00  0.00    +0.000 NA
ATOM     10  C   UNL     1       0.096  -2.946   3.780  0.00  0.00    +0.000 A 
ATOM     11  C   UNL     1      -0.330  -1.916   2.965  0.00  0.00    +0.000 A 
ATOM     12  H   UNL     1       3.623  -4.860   3.921  0.00  0.00    +0.000 HD
ENDROOT
BRANCH   6  13
ATOM     13  C   UNL     1       3.673  -5.426   5.904  0.00  0.00    +0.000 A 
ATOM     14  C   UNL     1       3.264  -5.046   7.193  0.00  0.00    +0.000 A 
ATOM     15  C   UNL     1       3.897  -5.554   8.323  0.00  0.00    +0.000 A 
ATOM     16  C   UNL     1       4.957  -6.438   8.167  0.00  0.00    +0.000 A 
ATOM     17  F   UNL     1       5.558  -6.916   9.270  0.00  0.00    +0.000 F 
ATOM     18  C   UNL     1       5.392  -6.812   6.902  0.00  0.00    +0.000 A 
ATOM     19 CL   UNL     1       6.714  -7.901   6.715  0.00  0.00    +0.000 Cl
ATOM     20  C   UNL     1       4.759  -6.299   5.768  0.00  0.00    +0.000 A 
ENDBRANCH   6  13
BRANCH   1  22
ATOM     21  C   UNL     1       0.609   0.077   0.156  0.00  0.00    +0.000 C 
ATOM     22  O   UNL     1      -0.028  -0.228   1.391  0.00  0.00    +0.000 OA
ENDBRANCH   1  22
BRANCH   3  23
ATOM     23  O   UNL     1       3.729  -2.736   3.260  0.00  0.00    +0.000 OA
BRANCH  23  24
ATOM     24  C   UNL     1       4.713  -1.862   2.670  0.00  0.00    +0.000 C 
ATOM     25  C   UNL     1       6.096  -2.519   2.796  0.00  0.00    +0.000 C 
ATOM     26  C   UNL     1       6.669  -2.445   4.210  0.00  0.00    +0.000 C 
ATOM     27  N   UNL     1       6.680  -1.078   4.724  0.00  0.00    +0.000 N 
ATOM     28  C   UNL     1       5.344  -0.493   4.726  0.00  0.00    +0.000 C 
ATOM     29  C   UNL     1       4.740  -0.474   3.327  0.00  0.00    +0.000 C 
ATOM     30  H   UNL     1       7.289  -0.509   4.136  0.00  0.00    +0.000 HD
ATOM     31  H   UNL     1       7.018  -1.102   5.685  0.00  0.00    +0.000 HD
ENDBRANCH  23  24
ENDBRANCH   3  23
TORSDOF 4
