MODEL 1
REMARK VINA RESULT:    -9.417      0.000      0.000
REMARK INTER + INTRA:         -16.892
REMARK INTER:                 -14.923
REMARK INTRA:                  -1.969
REMARK UNBOUND:                -1.969
REMARK  Name = 
REMARK  13 active torsions:
REMARK  status: ('A' for Active; 'I' for Inactive)
REMARK    1  A    between atoms: C_1  and  O_2
REMARK    2  A    between atoms: O_2  and  C_3
REMARK    3  A    between atoms: C_6  and  C_7
REMARK    4  A    between atoms: C_8  and  C_9
REMARK    5  A    between atoms: N_11  and  C_12
REMARK    6  A    between atoms: C_15  and  N_16
REMARK    7  A    between atoms: N_16  and  C_17
REMARK    8  A    between atoms: C_30  and  O_31
REMARK    9  A    between atoms: O_31  and  C_32
REMARK   10  A    between atoms: C_37  and  O_38
REMARK   11  A    between atoms: O_38  and  C_39
REMARK   12  A    between atoms: C_40  and  O_41
REMARK   13  A    between atoms: O_41  and  C_42
REMARK                            x       y       z     vdW  Elec       q    Type
REMARK                         _______ _______ _______ _____ _____    ______ ____
ROOT
ATOM      1  C   UNL     1      22.833   4.559  51.307  0.00  0.00    +0.000 A 
ATOM      2  C   UNL     1      23.369   3.887  52.412  0.00  0.00    +0.000 A 
ATOM      3  C   UNL     1      24.216   2.782  52.179  0.00  0.00    +0.000 A 
ATOM      4  C   UNL     1      25.033   2.160  53.135  0.00  0.00    +0.000 A 
ATOM      5  N   UNL     1      26.333   2.427  53.004  0.00  0.00    +0.000 NA
ATOM      6  C   UNL     1      26.743   2.457  51.732  0.00  0.00    +0.000 A 
ATOM      7  N   UNL     1      25.936   2.308  50.659  0.00  0.00    +0.000 NA
ATOM      8  C   UNL     1      24.642   2.583  50.873  0.00  0.00    +0.000 A 
ATOM      9  C   UNL     1      23.821   2.965  49.815  0.00  0.00    +0.000 A 
ATOM     10  C   UNL     1      22.904   3.982  50.032  0.00  0.00    +0.000 A 
ENDROOT
BRANCH   1  13
ATOM     11  C   UNL     1      23.195   7.027  50.900  0.00  0.00    +0.000 C 
ATOM     12  O   UNL     1      22.622   8.117  50.859  0.00  0.00    +0.000 OA
ATOM     13  N   UNL     1      22.535   5.931  51.342  0.00  0.00    +0.000 N 
ATOM     14  H   UNL     1      21.675   6.136  51.773  0.00  0.00    +0.000 HD
BRANCH  11  16
ATOM     15  C   UNL     1      24.994   6.781  49.319  0.00  0.00    +0.000 C 
ATOM     16  C   UNL     1      24.640   6.882  50.609  0.00  0.00    +0.000 C 
BRANCH  15  20
ATOM     17  C   UNL     1      29.007   5.906  48.182  0.00  0.00    +0.000 A 
ATOM     18  C   UNL     1      28.104   4.899  48.522  0.00  0.00    +0.000 A 
ATOM     19  C   UNL     1      26.787   5.218  48.847  0.00  0.00    +0.000 A 
ATOM     20  C   UNL     1      26.363   6.553  48.897  0.00  0.00    +0.000 A 
ATOM     21  C   UNL     1      27.258   7.583  48.552  0.00  0.00    +0.000 A 
ATOM     22  C   UNL     1      28.567   7.245  48.133  0.00  0.00    +0.000 A 
BRANCH  17  24
ATOM     23  C   UNL     1      31.211   5.877  49.076  0.00  0.00    +0.000 C 
ATOM     24  O   UNL     1      30.341   5.665  47.973  0.00  0.00    +0.000 OA
ENDBRANCH  17  24
BRANCH  21  25
ATOM     25  O   UNL     1      26.956   8.925  48.504  0.00  0.00    +0.000 OA
ATOM     26  C   UNL     1      27.141   9.714  49.674  0.00  0.00    +0.000 C 
ENDBRANCH  21  25
BRANCH  22  27
ATOM     27  O   UNL     1      29.363   8.296  47.728  0.00  0.00    +0.000 OA
ATOM     28  C   UNL     1      29.602   8.377  46.324  0.00  0.00    +0.000 C 
ENDBRANCH  22  27
ENDBRANCH  15  20
ENDBRANCH  11  16
ENDBRANCH   1  13
BRANCH   4  29
ATOM     29  N   UNL     1      24.817   0.713  53.254  0.00  0.00    +0.000 N 
ATOM     30  H   UNL     1      25.589   0.115  53.133  0.00  0.00    +0.000 HD
BRANCH  29  31
ATOM     31  C   UNL     1      23.549   0.132  53.531  0.00  0.00    +0.000 A 
ATOM     32  C   UNL     1      23.394  -0.811  54.570  0.00  0.00    +0.000 A 
ATOM     33  C   UNL     1      22.164  -1.444  54.780  0.00  0.00    +0.000 A 
ATOM     34  C   UNL     1      21.096  -1.163  53.932  0.00  0.00    +0.000 A 
ATOM     35  F   UNL     1      19.938  -1.804  54.128  0.00  0.00    +0.000 F 
ATOM     36  C   UNL     1      21.244  -0.257  52.894  0.00  0.00    +0.000 A 
ATOM     37 CL   UNL     1      19.945   0.058  51.807  0.00  0.00    +0.000 Cl
ATOM     38  C   UNL     1      22.464   0.397  52.705  0.00  0.00    +0.000 A 
ENDBRANCH  29  31
ENDBRANCH   4  29
BRANCH  10  39
ATOM     39  O   UNL     1      22.253   4.653  49.032  0.00  0.00    +0.000 OA
BRANCH  39  40
ATOM     40  C   UNL     1      22.585   4.371  47.671  0.00  0.00    +0.000 C 
ATOM     41  C   UNL     1      21.668   3.428  46.911  0.00  0.00    +0.000 C 
ATOM     42  C   UNL     1      21.822   3.892  45.472  0.00  0.00    +0.000 C 
ATOM     43  O   UNL     1      22.111   5.292  45.507  0.00  0.00    +0.000 OA
ATOM     44  C   UNL     1      22.372   5.657  46.867  0.00  0.00    +0.000 C 
ENDBRANCH  39  40
ENDBRANCH  10  39
TORSDOF 10
ENDMDL
MODEL 2
REMARK VINA RESULT:    -9.260      3.616      7.902
REMARK INTER + INTRA:         -16.642
REMARK INTER:                 -15.038
REMARK INTRA:                  -1.605
REMARK UNBOUND:                -1.969
REMARK  Name = 
REMARK  13 active torsions:
REMARK  status: ('A' for Active; 'I' for Inactive)
REMARK    1  A    between atoms: C_1  and  O_2
REMARK    2  A    between atoms: O_2  and  C_3
REMARK    3  A    between atoms: C_6  and  C_7
REMARK    4  A    between atoms: C_8  and  C_9
REMARK    5  A    between atoms: N_11  and  C_12
REMARK    6  A    between atoms: C_15  and  N_16
REMARK    7  A    between atoms: N_16  and  C_17
REMARK    8  A    between atoms: C_30  and  O_31
REMARK    9  A    between atoms: O_31  and  C_32
REMARK   10  A    between atoms: C_37  and  O_38
REMARK   11  A    between atoms: O_38  and  C_39
REMARK   12  A    between atoms: C_40  and  O_41
REMARK   13  A    between atoms: O_41  and  C_42
REMARK                            x       y       z     vdW  Elec       q    Type
REMARK                         _______ _______ _______ _____ _____    ______ ____
ROOT
ATOM      1  C   UNL     1      23.280   3.765  48.591  0.00  0.00    +0.000 A 
ATOM      2  C   UNL     1      23.825   2.901  49.547  0.00  0.00    +0.000 A 
ATOM      3  C   UNL     1      24.482   3.462  50.663  0.00  0.00    +0.000 A 
ATOM      4  C   UNL     1      24.855   2.773  51.827  0.00  0.00    +0.000 A 
ATOM      5  N   UNL     1      24.095   3.039  52.891  0.00  0.00    +0.000 NA
ATOM      6  C   UNL     1      23.753   4.327  52.989  0.00  0.00    +0.000 A 
ATOM      7  N   UNL     1      24.066   5.280  52.084  0.00  0.00    +0.000 NA
ATOM      8  C   UNL     1      24.338   4.830  50.852  0.00  0.00    +0.000 A 
ATOM      9  C   UNL     1      24.174   5.664  49.748  0.00  0.00    +0.000 A 
ATOM     10  C   UNL     1      23.623   5.124  48.596  0.00  0.00    +0.000 A 
ENDROOT
BRANCH   1  13
ATOM     11  C   UNL     1      21.085   2.618  48.088  0.00  0.00    +0.000 C 
ATOM     12  O   UNL     1      20.100   2.648  47.348  0.00  0.00    +0.000 OA
ATOM     13  N   UNL     1      22.143   3.424  47.840  0.00  0.00    +0.000 N 
ATOM     14  H   UNL     1      22.110   3.858  46.957  0.00  0.00    +0.000 HD
BRANCH  11  16
ATOM     15  C   UNL     1      20.416   1.773  50.240  0.00  0.00    +0.000 C 
ATOM     16  C   UNL     1      21.224   1.626  49.180  0.00  0.00    +0.000 C 
BRANCH  15  20
ATOM     17  C   UNL     1      20.884  -0.765  53.632  0.00  0.00    +0.000 A 
ATOM     18  C   UNL     1      21.981  -0.196  52.984  0.00  0.00    +0.000 A 
ATOM     19  C   UNL     1      21.789   0.664  51.904  0.00  0.00    +0.000 A 
ATOM     20  C   UNL     1      20.502   0.925  51.414  0.00  0.00    +0.000 A 
ATOM     21  C   UNL     1      19.383   0.365  52.058  0.00  0.00    +0.000 A 
ATOM     22  C   UNL     1      19.581  -0.432  53.211  0.00  0.00    +0.000 A 
BRANCH  17  24
ATOM     23  C   UNL     1      22.301  -1.848  55.205  0.00  0.00    +0.000 C 
ATOM     24  O   UNL     1      21.015  -1.709  54.618  0.00  0.00    +0.000 OA
ENDBRANCH  17  24
BRANCH  21  25
ATOM     25  O   UNL     1      18.068   0.586  51.717  0.00  0.00    +0.000 OA
ATOM     26  C   UNL     1      17.531  -0.081  50.580  0.00  0.00    +0.000 C 
ENDBRANCH  21  25
BRANCH  22  27
ATOM     27  O   UNL     1      18.438  -0.877  53.843  0.00  0.00    +0.000 OA
ATOM     28  C   UNL     1      18.078  -2.231  53.574  0.00  0.00    +0.000 C 
ENDBRANCH  22  27
ENDBRANCH  15  20
ENDBRANCH  11  16
ENDBRANCH   1  13
BRANCH   4  29
ATOM     29  N   UNL     1      26.277   2.906  52.168  0.00  0.00    +0.000 N 
ATOM     30  H   UNL     1      26.716   3.772  52.010  0.00  0.00    +0.000 HD
BRANCH  29  31
ATOM     31  C   UNL     1      27.051   1.846  52.714  0.00  0.00    +0.000 A 
ATOM     32  C   UNL     1      28.244   2.108  53.422  0.00  0.00    +0.000 A 
ATOM     33  C   UNL     1      29.047   1.057  53.880  0.00  0.00    +0.000 A 
ATOM     34  C   UNL     1      28.680  -0.256  53.600  0.00  0.00    +0.000 A 
ATOM     35  F   UNL     1      29.478  -1.246  54.016  0.00  0.00    +0.000 F 
ATOM     36  C   UNL     1      27.524  -0.525  52.884  0.00  0.00    +0.000 A 
ATOM     37 CL   UNL     1      27.088  -2.144  52.487  0.00  0.00    +0.000 Cl
ATOM     38  C   UNL     1      26.708   0.525  52.455  0.00  0.00    +0.000 A 
ENDBRANCH  29  31
ENDBRANCH   4  29
BRANCH  10  39
ATOM     39  O   UNL     1      23.135   5.870  47.557  0.00  0.00    +0.000 OA
BRANCH  39  40
ATOM     40  C   UNL     1      23.290   7.290  47.585  0.00  0.00    +0.000 C 
ATOM     41  C   UNL     1      24.120   7.924  46.483  0.00  0.00    +0.000 C 
ATOM     42  C   UNL     1      23.518   9.314  46.361  0.00  0.00    +0.000 C 
ATOM     43  O   UNL     1      22.139   9.212  46.725  0.00  0.00    +0.000 OA
ATOM     44  C   UNL     1      21.922   7.910  47.280  0.00  0.00    +0.000 C 
ENDBRANCH  39  40
ENDBRANCH  10  39
TORSDOF 10
ENDMDL
MODEL 3
REMARK VINA RESULT:    -8.970      2.920      3.360
REMARK INTER + INTRA:         -16.183
REMARK INTER:                 -14.559
REMARK INTRA:                  -1.623
REMARK UNBOUND:                -1.969
REMARK  Name = 
REMARK  13 active torsions:
REMARK  status: ('A' for Active; 'I' for Inactive)
REMARK    1  A    between atoms: C_1  and  O_2
REMARK    2  A    between atoms: O_2  and  C_3
REMARK    3  A    between atoms: C_6  and  C_7
REMARK    4  A    between atoms: C_8  and  C_9
REMARK    5  A    between atoms: N_11  and  C_12
REMARK    6  A    between atoms: C_15  and  N_16
REMARK    7  A    between atoms: N_16  and  C_17
REMARK    8  A    between atoms: C_30  and  O_31
REMARK    9  A    between atoms: O_31  and  C_32
REMARK   10  A    between atoms: C_37  and  O_38
REMARK   11  A    between atoms: O_38  and  C_39
REMARK   12  A    between atoms: C_40  and  O_41
REMARK   13  A    between atoms: O_41  and  C_42
REMARK                            x       y       z     vdW  Elec       q    Type
REMARK                         _______ _______ _______ _____ _____    ______ ____
ROOT
ATOM      1  C   UNL     1      22.592   4.402  52.333  0.00  0.00    +0.000 A 
ATOM      2  C   UNL     1      23.747   4.132  53.077  0.00  0.00    +0.000 A 
ATOM      3  C   UNL     1      24.441   2.929  52.827  0.00  0.00    +0.000 A 
ATOM      4  C   UNL     1      25.731   2.617  53.281  0.00  0.00    +0.000 A 
ATOM      5  N   UNL     1      26.672   2.660  52.337  0.00  0.00    +0.000 NA
ATOM      6  C   UNL     1      26.268   2.166  51.163  0.00  0.00    +0.000 A 
ATOM      7  N   UNL     1      25.019   1.724  50.901  0.00  0.00    +0.000 NA
ATOM      8  C   UNL     1      24.061   2.209  51.702  0.00  0.00    +0.000 A 
ATOM      9  C   UNL     1      22.740   2.263  51.264  0.00  0.00    +0.000 A 
ATOM     10  C   UNL     1      21.992   3.387  51.576  0.00  0.00    +0.000 A 
ENDROOT
BRANCH   1  13
ATOM     11  C   UNL     1      22.443   6.525  50.970  0.00  0.00    +0.000 C 
ATOM     12  O   UNL     1      21.799   7.567  50.830  0.00  0.00    +0.000 OA
ATOM     13  N   UNL     1      22.194   5.713  52.024  0.00  0.00    +0.000 N 
ATOM     14  H   UNL     1      21.619   6.122  52.709  0.00  0.00    +0.000 HD
BRANCH  11  16
ATOM     15  C   UNL     1      24.797   6.632  50.476  0.00  0.00    +0.000 C 
ATOM     16  C   UNL     1      23.591   6.181  50.100  0.00  0.00    +0.000 C 
BRANCH  15  20
ATOM     17  C   UNL     1      28.321   5.854  48.209  0.00  0.00    +0.000 A 
ATOM     18  C   UNL     1      27.522   4.822  48.703  0.00  0.00    +0.000 A 
ATOM     19  C   UNL     1      26.353   5.113  49.404  0.00  0.00    +0.000 A 
ATOM     20  C   UNL     1      25.991   6.439  49.675  0.00  0.00    +0.000 A 
ATOM     21  C   UNL     1      26.779   7.494  49.180  0.00  0.00    +0.000 A 
ATOM     22  C   UNL     1      27.914   7.192  48.390  0.00  0.00    +0.000 A 
BRANCH  17  24
ATOM     23  C   UNL     1      30.668   5.588  48.482  0.00  0.00    +0.000 C 
ATOM     24  O   UNL     1      29.539   5.631  47.620  0.00  0.00    +0.000 OA
ENDBRANCH  17  24
BRANCH  21  25
ATOM     25  O   UNL     1      26.506   8.835  49.324  0.00  0.00    +0.000 OA
ATOM     26  C   UNL     1      27.071   9.538  50.426  0.00  0.00    +0.000 C 
ENDBRANCH  21  25
BRANCH  22  27
ATOM     27  O   UNL     1      28.592   8.273  47.866  0.00  0.00    +0.000 OA
ATOM     28  C   UNL     1      28.394   8.503  46.472  0.00  0.00    +0.000 C 
ENDBRANCH  22  27
ENDBRANCH  15  20
ENDBRANCH  11  16
ENDBRANCH   1  13
BRANCH   4  29
ATOM     29  N   UNL     1      25.811   1.354  54.026  0.00  0.00    +0.000 N 
ATOM     30  H   UNL     1      25.293   1.271  54.859  0.00  0.00    +0.000 HD
BRANCH  29  31
ATOM     31  C   UNL     1      26.601   0.249  53.607  0.00  0.00    +0.000 A 
ATOM     32  C   UNL     1      26.003  -0.890  53.024  0.00  0.00    +0.000 A 
ATOM     33  C   UNL     1      26.775  -2.010  52.695  0.00  0.00    +0.000 A 
ATOM     34  C   UNL     1      28.138  -2.009  52.981  0.00  0.00    +0.000 A 
ATOM     35  F   UNL     1      28.853  -3.103  52.690  0.00  0.00    +0.000 F 
ATOM     36  C   UNL     1      28.730  -0.906  53.576  0.00  0.00    +0.000 A 
ATOM     37 CL   UNL     1      30.405  -0.916  53.982  0.00  0.00    +0.000 Cl
ATOM     38  C   UNL     1      27.964   0.222  53.875  0.00  0.00    +0.000 A 
ENDBRANCH  29  31
ENDBRANCH   4  29
BRANCH  10  39
ATOM     39  O   UNL     1      20.805   3.709  50.975  0.00  0.00    +0.000 OA
BRANCH  39  40
ATOM     40  C   UNL     1      20.666   3.530  49.564  0.00  0.00    +0.000 C 
ATOM     41  C   UNL     1      19.683   2.475  49.087  0.00  0.00    +0.000 C 
ATOM     42  C   UNL     1      19.246   3.006  47.732  0.00  0.00    +0.000 C 
ATOM     43  O   UNL     1      19.325   4.433  47.790  0.00  0.00    +0.000 OA
ATOM     44  C   UNL     1      19.999   4.790  49.003  0.00  0.00    +0.000 C 
ENDBRANCH  39  40
ENDBRANCH  10  39
TORSDOF 10
ENDMDL
MODEL 4
REMARK VINA RESULT:    -8.650      4.574      9.173
REMARK INTER + INTRA:         -15.676
REMARK INTER:                 -14.133
REMARK INTRA:                  -1.542
REMARK UNBOUND:                -1.969
REMARK  Name = 
REMARK  13 active torsions:
REMARK  status: ('A' for Active; 'I' for Inactive)
REMARK    1  A    between atoms: C_1  and  O_2
REMARK    2  A    between atoms: O_2  and  C_3
REMARK    3  A    between atoms: C_6  and  C_7
REMARK    4  A    between atoms: C_8  and  C_9
REMARK    5  A    between atoms: N_11  and  C_12
REMARK    6  A    between atoms: C_15  and  N_16
REMARK    7  A    between atoms: N_16  and  C_17
REMARK    8  A    between atoms: C_30  and  O_31
REMARK    9  A    between atoms: O_31  and  C_32
REMARK   10  A    between atoms: C_37  and  O_38
REMARK   11  A    between atoms: O_38  and  C_39
REMARK   12  A    between atoms: C_40  and  O_41
REMARK   13  A    between atoms: O_41  and  C_42
REMARK                            x       y       z     vdW  Elec       q    Type
REMARK                         _______ _______ _______ _____ _____    ______ ____
ROOT
ATOM      1  C   UNL     1      24.398   1.196  53.297  0.00  0.00    +0.000 A 
ATOM      2  C   UNL     1      23.794   2.398  52.912  0.00  0.00    +0.000 A 
ATOM      3  C   UNL     1      24.468   3.221  51.984  0.00  0.00    +0.000 A 
ATOM      4  C   UNL     1      23.911   4.312  51.300  0.00  0.00    +0.000 A 
ATOM      5  N   UNL     1      23.658   4.082  50.011  0.00  0.00    +0.000 NA
ATOM      6  C   UNL     1      24.607   3.361  49.405  0.00  0.00    +0.000 A 
ATOM      7  N   UNL     1      25.690   2.840  50.020  0.00  0.00    +0.000 NA
ATOM      8  C   UNL     1      25.570   2.670  51.344  0.00  0.00    +0.000 A 
ATOM      9  C   UNL     1      26.345   1.719  52.003  0.00  0.00    +0.000 A 
ATOM     10  C   UNL     1      25.745   0.958  52.993  0.00  0.00    +0.000 A 
ENDROOT
BRANCH   1  13
ATOM     11  C   UNL     1      22.480  -0.449  53.210  0.00  0.00    +0.000 C 
ATOM     12  O   UNL     1      22.129  -1.577  53.560  0.00  0.00    +0.000 OA
ATOM     13  N   UNL     1      23.645   0.069  53.666  0.00  0.00    +0.000 N 
ATOM     14  H   UNL     1      24.045  -0.448  54.402  0.00  0.00    +0.000 HD
BRANCH  11  16
ATOM     15  C   UNL     1      21.494   0.158  51.101  0.00  0.00    +0.000 C 
ATOM     16  C   UNL     1      21.608   0.439  52.407  0.00  0.00    +0.000 C 
BRANCH  15  20
ATOM     17  C   UNL     1      19.477   2.680  48.319  0.00  0.00    +0.000 A 
ATOM     18  C   UNL     1      20.796   2.272  48.118  0.00  0.00    +0.000 A 
ATOM     19  C   UNL     1      21.410   1.412  49.026  0.00  0.00    +0.000 A 
ATOM     20  C   UNL     1      20.740   0.991  50.183  0.00  0.00    +0.000 A 
ATOM     21  C   UNL     1      19.407   1.387  50.401  0.00  0.00    +0.000 A 
ATOM     22  C   UNL     1      18.759   2.185  49.427  0.00  0.00    +0.000 A 
BRANCH  17  24
ATOM     23  C   UNL     1      19.142   4.980  47.817  0.00  0.00    +0.000 C 
ATOM     24  O   UNL     1      18.863   3.617  47.529  0.00  0.00    +0.000 OA
ENDBRANCH  17  24
BRANCH  21  25
ATOM     25  O   UNL     1      18.618   1.000  51.460  0.00  0.00    +0.000 OA
ATOM     26  C   UNL     1      18.064  -0.311  51.461  0.00  0.00    +0.000 C 
ENDBRANCH  21  25
BRANCH  22  27
ATOM     27  O   UNL     1      17.429   2.465  49.661  0.00  0.00    +0.000 OA
ATOM     28  C   UNL     1      16.501   1.765  48.835  0.00  0.00    +0.000 C 
ENDBRANCH  22  27
ENDBRANCH  15  20
ENDBRANCH  11  16
ENDBRANCH   1  13
BRANCH   4  29
ATOM     29  N   UNL     1      24.665   5.562  51.459  0.00  0.00    +0.000 N 
ATOM     30  H   UNL     1      25.319   5.622  52.191  0.00  0.00    +0.000 HD
BRANCH  29  31
ATOM     31  C   UNL     1      24.496   6.689  50.609  0.00  0.00    +0.000 A 
ATOM     32  C   UNL     1      23.301   7.443  50.632  0.00  0.00    +0.000 A 
ATOM     33  C   UNL     1      23.107   8.496  49.732  0.00  0.00    +0.000 A 
ATOM     34  C   UNL     1      24.088   8.777  48.784  0.00  0.00    +0.000 A 
ATOM     35  F   UNL     1      23.868   9.766  47.910  0.00  0.00    +0.000 F 
ATOM     36  C   UNL     1      25.253   8.028  48.737  0.00  0.00    +0.000 A 
ATOM     37 CL   UNL     1      26.450   8.333  47.535  0.00  0.00    +0.000 Cl
ATOM     38  C   UNL     1      25.459   6.997  49.657  0.00  0.00    +0.000 A 
ENDBRANCH  29  31
ENDBRANCH   4  29
BRANCH  10  39
ATOM     39  O   UNL     1      26.282  -0.191  53.508  0.00  0.00    +0.000 OA
BRANCH  39  40
ATOM     40  C   UNL     1      27.567  -0.624  53.057  0.00  0.00    +0.000 C 
ATOM     41  C   UNL     1      28.749  -0.383  53.979  0.00  0.00    +0.000 C 
ATOM     42  C   UNL     1      29.702  -1.508  53.611  0.00  0.00    +0.000 C 
ATOM     43  O   UNL     1      28.906  -2.612  53.173  0.00  0.00    +0.000 OA
ATOM     44  C   UNL     1      27.555  -2.156  53.031  0.00  0.00    +0.000 C 
ENDBRANCH  39  40
ENDBRANCH  10  39
TORSDOF 10
ENDMDL
MODEL 5
REMARK VINA RESULT:    -8.508      4.925      9.844
REMARK INTER + INTRA:         -15.450
REMARK INTER:                 -14.264
REMARK INTRA:                  -1.186
REMARK UNBOUND:                -1.969
REMARK  Name = 
REMARK  13 active torsions:
REMARK  status: ('A' for Active; 'I' for Inactive)
REMARK    1  A    between atoms: C_1  and  O_2
REMARK    2  A    between atoms: O_2  and  C_3
REMARK    3  A    between atoms: C_6  and  C_7
REMARK    4  A    between atoms: C_8  and  C_9
REMARK    5  A    between atoms: N_11  and  C_12
REMARK    6  A    between atoms: C_15  and  N_16
REMARK    7  A    between atoms: N_16  and  C_17
REMARK    8  A    between atoms: C_30  and  O_31
REMARK    9  A    between atoms: O_31  and  C_32
REMARK   10  A    between atoms: C_37  and  O_38
REMARK   11  A    between atoms: O_38  and  C_39
REMARK   12  A    between atoms: C_40  and  O_41
REMARK   13  A    between atoms: O_41  and  C_42
REMARK                            x       y       z     vdW  Elec       q    Type
REMARK                         _______ _______ _______ _____ _____    ______ ____
ROOT
ATOM      1  C   UNL     1      24.542   1.226  53.297  0.00  0.00    +0.000 A 
ATOM      2  C   UNL     1      23.844   2.339  52.815  0.00  0.00    +0.000 A 
ATOM      3  C   UNL     1      24.539   3.274  52.017  0.00  0.00    +0.000 A 
ATOM      4  C   UNL     1      23.954   4.292  51.249  0.00  0.00    +0.000 A 
ATOM      5  N   UNL     1      23.960   4.061  49.935  0.00  0.00    +0.000 NA
ATOM      6  C   UNL     1      25.092   3.499  49.501  0.00  0.00    +0.000 A 
ATOM      7  N   UNL     1      26.119   3.123  50.292  0.00  0.00    +0.000 NA
ATOM      8  C   UNL     1      25.802   2.903  51.576  0.00  0.00    +0.000 A 
ATOM      9  C   UNL     1      26.584   2.056  52.357  0.00  0.00    +0.000 A 
ATOM     10  C   UNL     1      25.941   1.191  53.229  0.00  0.00    +0.000 A 
ENDROOT
BRANCH   1  13
ATOM     11  C   UNL     1      22.650  -0.450  53.309  0.00  0.00    +0.000 C 
ATOM     12  O   UNL     1      22.395  -1.652  53.405  0.00  0.00    +0.000 OA
ATOM     13  N   UNL     1      23.910  -0.006  53.530  0.00  0.00    +0.000 N 
ATOM     14  H   UNL     1      24.500  -0.682  53.934  0.00  0.00    +0.000 HD
BRANCH  11  16
ATOM     15  C   UNL     1      20.570   0.221  52.301  0.00  0.00    +0.000 C 
ATOM     16  C   UNL     1      21.597   0.568  53.090  0.00  0.00    +0.000 C 
BRANCH  15  20
ATOM     17  C   UNL     1      17.584   3.103  51.332  0.00  0.00    +0.000 A 
ATOM     18  C   UNL     1      18.894   3.477  51.635  0.00  0.00    +0.000 A 
ATOM     19  C   UNL     1      19.856   2.505  51.906  0.00  0.00    +0.000 A 
ATOM     20  C   UNL     1      19.514   1.146  51.936  0.00  0.00    +0.000 A 
ATOM     21  C   UNL     1      18.199   0.749  51.626  0.00  0.00    +0.000 A 
ATOM     22  C   UNL     1      17.251   1.735  51.262  0.00  0.00    +0.000 A 
BRANCH  17  24
ATOM     23  C   UNL     1      15.859   4.385  52.350  0.00  0.00    +0.000 C 
ATOM     24  O   UNL     1      16.572   4.015  51.178  0.00  0.00    +0.000 OA
ENDBRANCH  17  24
BRANCH  21  25
ATOM     25  O   UNL     1      17.747  -0.549  51.562  0.00  0.00    +0.000 OA
ATOM     26  C   UNL     1      17.298  -1.180  52.757  0.00  0.00    +0.000 C 
ENDBRANCH  21  25
BRANCH  22  27
ATOM     27  O   UNL     1      16.008   1.271  50.888  0.00  0.00    +0.000 OA
ATOM     28  C   UNL     1      15.775   1.206  49.482  0.00  0.00    +0.000 C 
ENDBRANCH  22  27
ENDBRANCH  15  20
ENDBRANCH  11  16
ENDBRANCH   1  13
BRANCH   4  29
ATOM     29  N   UNL     1      24.480   5.632  51.536  0.00  0.00    +0.000 N 
ATOM     30  H   UNL     1      25.061   5.746  52.322  0.00  0.00    +0.000 HD
BRANCH  29  31
ATOM     31  C   UNL     1      24.191   6.772  50.738  0.00  0.00    +0.000 A 
ATOM     32  C   UNL     1      22.871   7.257  50.615  0.00  0.00    +0.000 A 
ATOM     33  C   UNL     1      22.580   8.324  49.758  0.00  0.00    +0.000 A 
ATOM     34  C   UNL     1      23.600   8.886  48.995  0.00  0.00    +0.000 A 
ATOM     35  F   UNL     1      23.296   9.884  48.157  0.00  0.00    +0.000 F 
ATOM     36  C   UNL     1      24.896   8.402  49.089  0.00  0.00    +0.000 A 
ATOM     37 CL   UNL     1      26.155   9.055  48.111  0.00  0.00    +0.000 Cl
ATOM     38  C   UNL     1      25.189   7.357  49.968  0.00  0.00    +0.000 A 
ENDBRANCH  29  31
ENDBRANCH   4  29
BRANCH  10  39
ATOM     39  O   UNL     1      26.545   0.118  53.827  0.00  0.00    +0.000 OA
BRANCH  39  40
ATOM     40  C   UNL     1      27.576  -0.582  53.129  0.00  0.00    +0.000 C 
ATOM     41  C   UNL     1      28.863  -0.865  53.884  0.00  0.00    +0.000 C 
ATOM     42  C   UNL     1      29.374  -2.134  53.221  0.00  0.00    +0.000 C 
ATOM     43  O   UNL     1      28.232  -2.861  52.761  0.00  0.00    +0.000 OA
ATOM     44  C   UNL     1      27.084  -2.014  52.892  0.00  0.00    +0.000 C 
ENDBRANCH  39  40
ENDBRANCH  10  39
TORSDOF 10
ENDMDL
MODEL 6
REMARK VINA RESULT:    -8.490      4.451      8.868
REMARK INTER + INTRA:         -15.422
REMARK INTER:                 -13.213
REMARK INTRA:                  -2.209
REMARK UNBOUND:                -1.969
REMARK  Name = 
REMARK  13 active torsions:
REMARK  status: ('A' for Active; 'I' for Inactive)
REMARK    1  A    between atoms: C_1  and  O_2
REMARK    2  A    between atoms: O_2  and  C_3
REMARK    3  A    between atoms: C_6  and  C_7
REMARK    4  A    between atoms: C_8  and  C_9
REMARK    5  A    between atoms: N_11  and  C_12
REMARK    6  A    between atoms: C_15  and  N_16
REMARK    7  A    between atoms: N_16  and  C_17
REMARK    8  A    between atoms: C_30  and  O_31
REMARK    9  A    between atoms: O_31  and  C_32
REMARK   10  A    between atoms: C_37  and  O_38
REMARK   11  A    between atoms: O_38  and  C_39
REMARK   12  A    between atoms: C_40  and  O_41
REMARK   13  A    between atoms: O_41  and  C_42
REMARK                            x       y       z     vdW  Elec       q    Type
REMARK                         _______ _______ _______ _____ _____    ______ ____
ROOT
ATOM      1  C   UNL     1      22.133   3.067  50.116  0.00  0.00    +0.000 A 
ATOM      2  C   UNL     1      22.775   1.887  50.510  0.00  0.00    +0.000 A 
ATOM      3  C   UNL     1      22.681   1.491  51.861  0.00  0.00    +0.000 A 
ATOM      4  C   UNL     1      23.034   0.233  52.373  0.00  0.00    +0.000 A 
ATOM      5  N   UNL     1      21.996  -0.541  52.694  0.00  0.00    +0.000 NA
ATOM      6  C   UNL     1      20.993   0.129  53.271  0.00  0.00    +0.000 A 
ATOM      7  N   UNL     1      20.969   1.466  53.461  0.00  0.00    +0.000 NA
ATOM      8  C   UNL     1      21.768   2.174  52.652  0.00  0.00    +0.000 A 
ATOM      9  C   UNL     1      21.484   3.510  52.379  0.00  0.00    +0.000 A 
ATOM     10  C   UNL     1      21.660   3.964  51.081  0.00  0.00    +0.000 A 
ENDROOT
BRANCH   1  13
ATOM     11  C   UNL     1      20.437   2.942  48.246  0.00  0.00    +0.000 C 
ATOM     12  O   UNL     1      20.157   3.392  47.133  0.00  0.00    +0.000 OA
ATOM     13  N   UNL     1      21.627   3.241  48.817  0.00  0.00    +0.000 N 
ATOM     14  H   UNL     1      22.264   3.666  48.200  0.00  0.00    +0.000 HD
BRANCH  11  16
ATOM     15  C   UNL     1      18.670   2.453  49.806  0.00  0.00    +0.000 C 
ATOM     16  C   UNL     1      19.573   1.962  48.943  0.00  0.00    +0.000 C 
BRANCH  15  20
ATOM     17  C   UNL     1      16.276  -0.221  52.104  0.00  0.00    +0.000 A 
ATOM     18  C   UNL     1      17.525  -0.596  51.606  0.00  0.00    +0.000 A 
ATOM     19  C   UNL     1      18.300   0.318  50.895  0.00  0.00    +0.000 A 
ATOM     20  C   UNL     1      17.818   1.604  50.617  0.00  0.00    +0.000 A 
ATOM     21  C   UNL     1      16.564   2.003  51.116  0.00  0.00    +0.000 A 
ATOM     22  C   UNL     1      15.823   1.100  51.916  0.00  0.00    +0.000 A 
BRANCH  17  24
ATOM     23  C   UNL     1      15.513  -2.466  52.288  0.00  0.00    +0.000 C 
ATOM     24  O   UNL     1      15.421  -1.110  52.702  0.00  0.00    +0.000 OA
ENDBRANCH  17  24
BRANCH  21  25
ATOM     25  O   UNL     1      16.001   3.250  50.966  0.00  0.00    +0.000 OA
ATOM     26  C   UNL     1      16.347   4.276  51.890  0.00  0.00    +0.000 C 
ENDBRANCH  21  25
BRANCH  22  27
ATOM     27  O   UNL     1      14.644   1.585  52.442  0.00  0.00    +0.000 OA
ATOM     28  C   UNL     1      13.474   1.316  51.673  0.00  0.00    +0.000 C 
ENDBRANCH  22  27
ENDBRANCH  15  20
ENDBRANCH  11  16
ENDBRANCH   1  13
BRANCH   4  29
ATOM     29  N   UNL     1      23.992   0.289  53.484  0.00  0.00    +0.000 N 
ATOM     30  H   UNL     1      23.643   0.418  54.395  0.00  0.00    +0.000 HD
BRANCH  29  31
ATOM     31  C   UNL     1      25.398   0.168  53.309  0.00  0.00    +0.000 A 
ATOM     32  C   UNL     1      25.997  -1.092  53.089  0.00  0.00    +0.000 A 
ATOM     33  C   UNL     1      27.388  -1.215  53.006  0.00  0.00    +0.000 A 
ATOM     34  C   UNL     1      28.186  -0.087  53.180  0.00  0.00    +0.000 A 
ATOM     35  F   UNL     1      29.516  -0.232  53.131  0.00  0.00    +0.000 F 
ATOM     36  C   UNL     1      27.610   1.150  53.421  0.00  0.00    +0.000 A 
ATOM     37 CL   UNL     1      28.590   2.542  53.690  0.00  0.00    +0.000 Cl
ATOM     38  C   UNL     1      26.220   1.276  53.472  0.00  0.00    +0.000 A 
ENDBRANCH  29  31
ENDBRANCH   4  29
BRANCH  10  39
ATOM     39  O   UNL     1      21.151   5.143  50.607  0.00  0.00    +0.000 OA
BRANCH  39  40
ATOM     40  C   UNL     1      21.807   6.370  50.935  0.00  0.00    +0.000 C 
ATOM     41  C   UNL     1      23.286   6.302  51.274  0.00  0.00    +0.000 C 
ATOM     42  C   UNL     1      23.793   7.673  50.859  0.00  0.00    +0.000 C 
ATOM     43  O   UNL     1      22.972   8.119  49.777  0.00  0.00    +0.000 OA
ATOM     44  C   UNL     1      21.863   7.219  49.661  0.00  0.00    +0.000 C 
ENDBRANCH  39  40
ENDBRANCH  10  39
TORSDOF 10
ENDMDL
MODEL 7
REMARK VINA RESULT:    -8.474      4.074      8.277
REMARK INTER + INTRA:         -15.397
REMARK INTER:                 -13.609
REMARK INTRA:                  -1.787
REMARK UNBOUND:                -1.969
REMARK  Name = 
REMARK  13 active torsions:
REMARK  status: ('A' for Active; 'I' for Inactive)
REMARK    1  A    between atoms: C_1  and  O_2
REMARK    2  A    between atoms: O_2  and  C_3
REMARK    3  A    between atoms: C_6  and  C_7
REMARK    4  A    between atoms: C_8  and  C_9
REMARK    5  A    between atoms: N_11  and  C_12
REMARK    6  A    between atoms: C_15  and  N_16
REMARK    7  A    between atoms: N_16  and  C_17
REMARK    8  A    between atoms: C_30  and  O_31
REMARK    9  A    between atoms: O_31  and  C_32
REMARK   10  A    between atoms: C_37  and  O_38
REMARK   11  A    between atoms: O_38  and  C_39
REMARK   12  A    between atoms: C_40  and  O_41
REMARK   13  A    between atoms: O_41  and  C_42
REMARK                            x       y       z     vdW  Elec       q    Type
REMARK                         _______ _______ _______ _____ _____    ______ ____
ROOT
ATOM      1  C   UNL     1      23.446   4.051  48.918  0.00  0.00    +0.000 A 
ATOM      2  C   UNL     1      24.238   3.045  49.484  0.00  0.00    +0.000 A 
ATOM      3  C   UNL     1      24.611   3.167  50.840  0.00  0.00    +0.000 A 
ATOM      4  C   UNL     1      25.172   2.153  51.630  0.00  0.00    +0.000 A 
ATOM      5  N   UNL     1      24.335   1.626  52.525  0.00  0.00    +0.000 NA
ATOM      6  C   UNL     1      23.544   2.533  53.109  0.00  0.00    +0.000 A 
ATOM      7  N   UNL     1      23.519   3.847  52.799  0.00  0.00    +0.000 NA
ATOM      8  C   UNL     1      23.974   4.156  51.578  0.00  0.00    +0.000 A 
ATOM      9  C   UNL     1      23.552   5.323  50.945  0.00  0.00    +0.000 A 
ATOM     10  C   UNL     1      23.272   5.268  49.589  0.00  0.00    +0.000 A 
ENDROOT
BRANCH   1  13
ATOM     11  C   UNL     1      21.229   3.432  47.874  0.00  0.00    +0.000 C 
ATOM     12  O   UNL     1      20.588   3.467  46.821  0.00  0.00    +0.000 OA
ATOM     13  N   UNL     1      22.535   3.788  47.882  0.00  0.00    +0.000 N 
ATOM     14  H   UNL     1      22.924   3.880  46.983  0.00  0.00    +0.000 HD
BRANCH  11  16
ATOM     15  C   UNL     1      20.080   1.678  49.054  0.00  0.00    +0.000 C 
ATOM     16  C   UNL     1      20.664   2.883  49.127  0.00  0.00    +0.000 C 
BRANCH  15  20
ATOM     17  C   UNL     1      18.322  -0.235  52.433  0.00  0.00    +0.000 A 
ATOM     18  C   UNL     1      19.696  -0.007  52.350  0.00  0.00    +0.000 A 
ATOM     19  C   UNL     1      20.232   0.660  51.250  0.00  0.00    +0.000 A 
ATOM     20  C   UNL     1      19.414   1.059  50.184  0.00  0.00    +0.000 A 
ATOM     21  C   UNL     1      18.025   0.844  50.252  0.00  0.00    +0.000 A 
ATOM     22  C   UNL     1      17.477   0.250  51.414  0.00  0.00    +0.000 A 
BRANCH  17  24
ATOM     23  C   UNL     1      18.243  -2.315  53.583  0.00  0.00    +0.000 C 
ATOM     24  O   UNL     1      17.755  -0.989  53.427  0.00  0.00    +0.000 OA
ENDBRANCH  17  24
BRANCH  21  25
ATOM     25  O   UNL     1      17.106   1.237  49.306  0.00  0.00    +0.000 OA
ATOM     26  C   UNL     1      16.796   2.621  49.182  0.00  0.00    +0.000 C 
ENDBRANCH  21  25
BRANCH  22  27
ATOM     27  O   UNL     1      16.101   0.147  51.450  0.00  0.00    +0.000 OA
ATOM     28  C   UNL     1      15.437   1.110  52.264  0.00  0.00    +0.000 C 
ENDBRANCH  22  27
ENDBRANCH  15  20
ENDBRANCH  11  16
ENDBRANCH   1  13
BRANCH   4  29
ATOM     29  N   UNL     1      26.437   2.529  52.273  0.00  0.00    +0.000 N 
ATOM     30  H   UNL     1      26.678   3.483  52.306  0.00  0.00    +0.000 HD
BRANCH  29  31
ATOM     31  C   UNL     1      27.332   1.587  52.848  0.00  0.00    +0.000 A 
ATOM     32  C   UNL     1      28.486   2.011  53.543  0.00  0.00    +0.000 A 
ATOM     33  C   UNL     1      29.408   1.078  54.030  0.00  0.00    +0.000 A 
ATOM     34  C   UNL     1      29.199  -0.278  53.793  0.00  0.00    +0.000 A 
ATOM     35  F   UNL     1      30.110  -1.153  54.236  0.00  0.00    +0.000 F 
ATOM     36  C   UNL     1      28.083  -0.705  53.090  0.00  0.00    +0.000 A 
ATOM     37 CL   UNL     1      27.842  -2.376  52.746  0.00  0.00    +0.000 Cl
ATOM     38  C   UNL     1      27.147   0.227  52.632  0.00  0.00    +0.000 A 
ENDBRANCH  29  31
ENDBRANCH   4  29
BRANCH  10  39
ATOM     39  O   UNL     1      22.579   6.234  48.911  0.00  0.00    +0.000 OA
BRANCH  39  40
ATOM     40  C   UNL     1      21.485   6.891  49.554  0.00  0.00    +0.000 C 
ATOM     41  C   UNL     1      21.597   8.390  49.766  0.00  0.00    +0.000 C 
ATOM     42  C   UNL     1      20.147   8.845  49.756  0.00  0.00    +0.000 C 
ATOM     43  O   UNL     1      19.427   7.944  48.910  0.00  0.00    +0.000 OA
ATOM     44  C   UNL     1      20.290   6.845  48.595  0.00  0.00    +0.000 C 
ENDBRANCH  39  40
ENDBRANCH  10  39
TORSDOF 10
ENDMDL
MODEL 8
REMARK VINA RESULT:    -8.346      4.951      8.651
REMARK INTER + INTRA:         -15.193
REMARK INTER:                 -14.155
REMARK INTRA:                  -1.039
REMARK UNBOUND:                -1.969
REMARK  Name = 
REMARK  13 active torsions:
REMARK  status: ('A' for Active; 'I' for Inactive)
REMARK    1  A    between atoms: C_1  and  O_2
REMARK    2  A    between atoms: O_2  and  C_3
REMARK    3  A    between atoms: C_6  and  C_7
REMARK    4  A    between atoms: C_8  and  C_9
REMARK    5  A    between atoms: N_11  and  C_12
REMARK    6  A    between atoms: C_15  and  N_16
REMARK    7  A    between atoms: N_16  and  C_17
REMARK    8  A    between atoms: C_30  and  O_31
REMARK    9  A    between atoms: O_31  and  C_32
REMARK   10  A    between atoms: C_37  and  O_38
REMARK   11  A    between atoms: O_38  and  C_39
REMARK   12  A    between atoms: C_40  and  O_41
REMARK   13  A    between atoms: O_41  and  C_42
REMARK                            x       y       z     vdW  Elec       q    Type
REMARK                         _______ _______ _______ _____ _____    ______ ____
ROOT
ATOM      1  C   UNL     1      19.340  -0.552  52.422  0.00  0.00    +0.000 A 
ATOM      2  C   UNL     1      19.940   0.292  51.480  0.00  0.00    +0.000 A 
ATOM      3  C   UNL     1      19.139   1.262  50.840  0.00  0.00    +0.000 A 
ATOM      4  C   UNL     1      19.610   2.340  50.077  0.00  0.00    +0.000 A 
ATOM      5  N   UNL     1      19.517   3.525  50.682  0.00  0.00    +0.000 NA
ATOM      6  C   UNL     1      18.385   3.677  51.378  0.00  0.00    +0.000 A 
ATOM      7  N   UNL     1      17.442   2.723  51.534  0.00  0.00    +0.000 NA
ATOM      8  C   UNL     1      17.867   1.464  51.359  0.00  0.00    +0.000 A 
ATOM      9  C   UNL     1      17.192   0.405  51.961  0.00  0.00    +0.000 A 
ATOM     10  C   UNL     1      17.944  -0.620  52.514  0.00  0.00    +0.000 A 
ENDROOT
BRANCH   1  13
ATOM     11  C   UNL     1      21.227  -0.737  54.093  0.00  0.00    +0.000 C 
ATOM     12  O   UNL     1      21.539  -1.221  55.183  0.00  0.00    +0.000 OA
ATOM     13  N   UNL     1      20.051  -1.075  53.514  0.00  0.00    +0.000 N 
ATOM     14  H   UNL     1      19.606  -1.840  53.944  0.00  0.00    +0.000 HD
BRANCH  11  16
ATOM     15  C   UNL     1      23.455   0.050  53.634  0.00  0.00    +0.000 C 
ATOM     16  C   UNL     1      22.155   0.109  53.308  0.00  0.00    +0.000 C 
BRANCH  15  20
ATOM     17  C   UNL     1      26.248   2.577  51.641  0.00  0.00    +0.000 A 
ATOM     18  C   UNL     1      24.873   2.803  51.569  0.00  0.00    +0.000 A 
ATOM     19  C   UNL     1      23.990   1.981  52.269  0.00  0.00    +0.000 A 
ATOM     20  C   UNL     1      24.460   0.885  53.005  0.00  0.00    +0.000 A 
ATOM     21  C   UNL     1      25.844   0.645  53.094  0.00  0.00    +0.000 A 
ATOM     22  C   UNL     1      26.739   1.538  52.457  0.00  0.00    +0.000 A 
BRANCH  17  24
ATOM     23  C   UNL     1      26.684   3.793  49.644  0.00  0.00    +0.000 C 
ATOM     24  O   UNL     1      27.152   3.273  50.880  0.00  0.00    +0.000 OA
ENDBRANCH  17  24
BRANCH  21  25
ATOM     25  O   UNL     1      26.439  -0.356  53.827  0.00  0.00    +0.000 OA
ATOM     26  C   UNL     1      26.774  -1.577  53.177  0.00  0.00    +0.000 C 
ENDBRANCH  21  25
BRANCH  22  27
ATOM     27  O   UNL     1      28.082   1.294  52.656  0.00  0.00    +0.000 OA
ATOM     28  C   UNL     1      28.724   2.142  53.605  0.00  0.00    +0.000 C 
ENDBRANCH  22  27
ENDBRANCH  15  20
ENDBRANCH  11  16
ENDBRANCH   1  13
BRANCH   4  29
ATOM     29  N   UNL     1      19.039   2.409  48.726  0.00  0.00    +0.000 N 
ATOM     30  H   UNL     1      18.117   2.091  48.594  0.00  0.00    +0.000 HD
BRANCH  29  31
ATOM     31  C   UNL     1      19.750   2.910  47.602  0.00  0.00    +0.000 A 
ATOM     32  C   UNL     1      21.161   2.879  47.562  0.00  0.00    +0.000 A 
ATOM     33  C   UNL     1      21.857   3.452  46.492  0.00  0.00    +0.000 A 
ATOM     34  C   UNL     1      21.147   4.090  45.478  0.00  0.00    +0.000 A 
ATOM     35  F   UNL     1      21.832   4.663  44.481  0.00  0.00    +0.000 F 
ATOM     36  C   UNL     1      19.763   4.148  45.519  0.00  0.00    +0.000 A 
ATOM     37 CL   UNL     1      18.878   4.980  44.297  0.00  0.00    +0.000 Cl
ATOM     38  C   UNL     1      19.069   3.547  46.572  0.00  0.00    +0.000 A 
ENDBRANCH  29  31
ENDBRANCH   4  29
BRANCH  10  39
ATOM     39  O   UNL     1      17.444  -1.555  53.381  0.00  0.00    +0.000 OA
BRANCH  39  40
ATOM     40  C   UNL     1      17.038  -2.828  52.876  0.00  0.00    +0.000 C 
ATOM     41  C   UNL     1      17.057  -4.001  53.841  0.00  0.00    +0.000 C 
ATOM     42  C   UNL     1      15.971  -4.911  53.291  0.00  0.00    +0.000 C 
ATOM     43  O   UNL     1      15.000  -4.076  52.655  0.00  0.00    +0.000 OA
ATOM     44  C   UNL     1      15.537  -2.750  52.579  0.00  0.00    +0.000 C 
ENDBRANCH  39  40
ENDBRANCH  10  39
TORSDOF 10
ENDMDL
MODEL 9
REMARK VINA RESULT:    -8.295      3.077      4.802
REMARK INTER + INTRA:         -15.114
REMARK INTER:                 -12.842
REMARK INTRA:                  -2.272
REMARK UNBOUND:                -1.969
REMARK  Name = 
REMARK  13 active torsions:
REMARK  status: ('A' for Active; 'I' for Inactive)
REMARK    1  A    between atoms: C_1  and  O_2
REMARK    2  A    between atoms: O_2  and  C_3
REMARK    3  A    between atoms: C_6  and  C_7
REMARK    4  A    between atoms: C_8  and  C_9
REMARK    5  A    between atoms: N_11  and  C_12
REMARK    6  A    between atoms: C_15  and  N_16
REMARK    7  A    between atoms: N_16  and  C_17
REMARK    8  A    between atoms: C_30  and  O_31
REMARK    9  A    between atoms: O_31  and  C_32
REMARK   10  A    between atoms: C_37  and  O_38
REMARK   11  A    between atoms: O_38  and  C_39
REMARK   12  A    between atoms: C_40  and  O_41
REMARK   13  A    between atoms: O_41  and  C_42
REMARK                            x       y       z     vdW  Elec       q    Type
REMARK                         _______ _______ _______ _____ _____    ______ ____
ROOT
ATOM      1  C   UNL     1      21.435   3.123  49.997  0.00  0.00    +0.000 A 
ATOM      2  C   UNL     1      22.347   2.124  50.358  0.00  0.00    +0.000 A 
ATOM      3  C   UNL     1      22.384   1.703  51.705  0.00  0.00    +0.000 A 
ATOM      4  C   UNL     1      23.036   0.559  52.189  0.00  0.00    +0.000 A 
ATOM      5  N   UNL     1      22.217  -0.441  52.521  0.00  0.00    +0.000 NA
ATOM      6  C   UNL     1      21.100  -0.031  53.131  0.00  0.00    +0.000 A 
ATOM      7  N   UNL     1      20.767   1.260  53.343  0.00  0.00    +0.000 NA
ATOM      8  C   UNL     1      21.356   2.145  52.527  0.00  0.00    +0.000 A 
ATOM      9  C   UNL     1      20.759   3.379  52.281  0.00  0.00    +0.000 A 
ATOM     10  C   UNL     1      20.790   3.875  50.987  0.00  0.00    +0.000 A 
ENDROOT
BRANCH   1  13
ATOM     11  C   UNL     1      21.372   3.520  47.502  0.00  0.00    +0.000 C 
ATOM     12  O   UNL     1      20.721   3.290  46.481  0.00  0.00    +0.000 OA
ATOM     13  N   UNL     1      20.869   3.186  48.713  0.00  0.00    +0.000 N 
ATOM     14  H   UNL     1      19.917   2.938  48.690  0.00  0.00    +0.000 HD
BRANCH  11  16
ATOM     15  C   UNL     1      22.555   5.614  47.560  0.00  0.00    +0.000 C 
ATOM     16  C   UNL     1      22.643   4.279  47.476  0.00  0.00    +0.000 C 
BRANCH  15  20
ATOM     17  C   UNL     1      25.912   8.192  47.056  0.00  0.00    +0.000 A 
ATOM     18  C   UNL     1      24.849   8.185  46.151  0.00  0.00    +0.000 A 
ATOM     19  C   UNL     1      23.747   7.360  46.371  0.00  0.00    +0.000 A 
ATOM     20  C   UNL     1      23.713   6.484  47.464  0.00  0.00    +0.000 A 
ATOM     21  C   UNL     1      24.773   6.480  48.390  0.00  0.00    +0.000 A 
ATOM     22  C   UNL     1      25.844   7.388  48.211  0.00  0.00    +0.000 A 
BRANCH  17  24
ATOM     23  C   UNL     1      27.711   8.679  45.578  0.00  0.00    +0.000 C 
ATOM     24  O   UNL     1      27.071   8.888  46.830  0.00  0.00    +0.000 OA
ENDBRANCH  17  24
BRANCH  21  25
ATOM     25  O   UNL     1      24.836   5.716  49.533  0.00  0.00    +0.000 OA
ATOM     26  C   UNL     1      25.545   4.482  49.495  0.00  0.00    +0.000 C 
ENDBRANCH  21  25
BRANCH  22  27
ATOM     27  O   UNL     1      26.806   7.392  49.201  0.00  0.00    +0.000 OA
ATOM     28  C   UNL     1      26.748   8.493  50.105  0.00  0.00    +0.000 C 
ENDBRANCH  22  27
ENDBRANCH  15  20
ENDBRANCH  11  16
ENDBRANCH   1  13
BRANCH   4  29
ATOM     29  N   UNL     1      23.982   0.828  53.278  0.00  0.00    +0.000 N 
ATOM     30  H   UNL     1      23.635   1.222  54.111  0.00  0.00    +0.000 HD
BRANCH  29  31
ATOM     31  C   UNL     1      25.374   0.552  53.189  0.00  0.00    +0.000 A 
ATOM     32  C   UNL     1      25.842  -0.768  53.006  0.00  0.00    +0.000 A 
ATOM     33  C   UNL     1      27.213  -1.045  53.008  0.00  0.00    +0.000 A 
ATOM     34  C   UNL     1      28.119  -0.011  53.230  0.00  0.00    +0.000 A 
ATOM     35  F   UNL     1      29.425  -0.301  53.262  0.00  0.00    +0.000 F 
ATOM     36  C   UNL     1      27.670   1.284  53.436  0.00  0.00    +0.000 A 
ATOM     37 CL   UNL     1      28.780   2.561  53.763  0.00  0.00    +0.000 Cl
ATOM     38  C   UNL     1      26.302   1.563  53.402  0.00  0.00    +0.000 A 
ENDBRANCH  29  31
ENDBRANCH   4  29
BRANCH  10  39
ATOM     39  O   UNL     1      20.006   4.905  50.543  0.00  0.00    +0.000 OA
BRANCH  39  40
ATOM     40  C   UNL     1      20.419   6.251  50.785  0.00  0.00    +0.000 C 
ATOM     41  C   UNL     1      21.909   6.512  50.913  0.00  0.00    +0.000 C 
ATOM     42  C   UNL     1      22.044   7.951  50.441  0.00  0.00    +0.000 C 
ATOM     43  O   UNL     1      21.005   8.183  49.487  0.00  0.00    +0.000 OA
ATOM     44  C   UNL     1      20.112   7.063  49.522  0.00  0.00    +0.000 C 
ENDBRANCH  39  40
ENDBRANCH  10  39
TORSDOF 10
ENDMDL
