MODEL 1
REMARK VINA RESULT:    -8.873      0.000      0.000
REMARK INTER + INTRA:         -13.546
REMARK INTER:                 -12.763
REMARK INTRA:                  -0.782
REMARK UNBOUND:                -0.782
REMARK  Name = 
REMARK  10 active torsions:
REMARK  status: ('A' for Active; 'I' for Inactive)
REMARK    1  A    between atoms: C_1  and  N_2
REMARK    2  A    between atoms: N_2  and  C_3
REMARK    3  A    between atoms: N_2  and  C_4
REMARK    4  A    between atoms: C_4  and  C_5
REMARK    5  A    between atoms: C_6  and  C_7
REMARK    6  A    between atoms: C_19  and  N_20
REMARK    7  A    between atoms: N_20  and  CA_21
REMARK    8  A    between atoms: CA_21  and  C_22
REMARK    9  A    between atoms: CA_21  and  C_24
REMARK   10  A    between atoms: C_22  and  O_23
REMARK                            x       y       z     vdW  Elec       q    Type
REMARK                         _______ _______ _______ _____ _____    ______ ____
ROOT
ATOM      1  C   UNL     1      19.325   3.029  50.316  0.00  0.00    +0.000 C 
ATOM      2  O   UNL     1      20.046   3.778  49.655  0.00  0.00    +0.000 OA
ATOM      3  N   UNL     1      19.540   1.659  50.347  0.00  0.00    +0.000 N 
ATOM      4  C   UNL     1      20.743   1.147  49.671  0.00  0.00    +0.000 C 
ATOM      5  C   UNL     1      21.897   0.961  50.690  0.00  0.00    +0.000 C 
ATOM      6  C   UNL     1      21.399   0.258  51.934  0.00  0.00    +0.000 A 
ATOM      7  C   UNL     1      20.026   0.139  52.140  0.00  0.00    +0.000 A 
ATOM      8  S   UNL     1      19.650  -0.759  53.526  0.00  0.00    +0.000 S 
ATOM      9  C   UNL     1      21.292  -0.886  53.953  0.00  0.00    +0.000 A 
ATOM     10  N   UNL     1      21.602  -1.516  55.095  0.00  0.00    +0.000 NA
ATOM     11  C   UNL     1      22.907  -1.494  55.342  0.00  0.00    +0.000 A 
ATOM     12  N   UNL     1      23.863  -0.924  54.600  0.00  0.00    +0.000 NA
ATOM     13  C   UNL     1      23.538  -0.308  53.437  0.00  0.00    +0.000 A 
ATOM     14  C   UNL     1      22.164  -0.284  53.052  0.00  0.00    +0.000 A 
ATOM     15  C   UNL     1      18.932   0.689  51.263  0.00  0.00    +0.000 C 
ENDROOT
BRANCH   1  17
ATOM     16  C   UNL     1      16.935   3.537  50.622  0.00  0.00    +0.000 C 
ATOM     17  C   UNL     1      18.193   3.610  51.098  0.00  0.00    +0.000 C 
BRANCH  16  18
ATOM     18  C   UNL     1      15.727   4.102  51.311  0.00  0.00    +0.000 C 
BRANCH  18  20
ATOM     19  C   UNL     1      14.735   4.390  53.511  0.00  0.00    +0.000 C 
ATOM     20  N   UNL     1      15.491   3.497  52.628  0.00  0.00    +0.000 N 
ATOM     21  C   UNL     1      14.767   2.231  52.477  0.00  0.00    +0.000 C 
ATOM     22  H   UNL     1      16.402   3.327  53.054  0.00  0.00    +0.000 HD
ENDBRANCH  18  20
ENDBRANCH  16  18
ENDBRANCH   1  17
BRANCH  13  23
ATOM     23  N   UNL     1      24.561   0.293  52.697  0.00  0.00    +0.000 N 
ATOM     24  H   UNL     1      24.622   0.176  51.722  0.00  0.00    +0.000 HD
BRANCH  23  25
ATOM     25  CA  UNL     1      25.554   1.117  53.438  0.00  0.00    +0.000 C 
BRANCH  25  26
ATOM     26  C   UNL     1      26.945   0.479  53.481  0.00  0.00    +0.000 A 
ATOM     27  C   UNL     1      28.073   1.234  53.852  0.00  0.00    +0.000 A 
ATOM     28  C   UNL     1      29.350   0.655  53.881  0.00  0.00    +0.000 A 
ATOM     29  C   UNL     1      29.522  -0.690  53.543  0.00  0.00    +0.000 A 
ATOM     30  C   UNL     1      28.420  -1.438  53.143  0.00  0.00    +0.000 A 
ATOM     31  C   UNL     1      27.146  -0.855  53.098  0.00  0.00    +0.000 A 
ENDBRANCH  25  26
BRANCH  25  32
ATOM     32  C   UNL     1      25.604   2.539  52.810  0.00  0.00    +0.000 C 
BRANCH  32  33
ATOM     33  O   UNL     1      24.809   3.496  53.517  0.00  0.00    +0.000 OA
ATOM     34  H   UNL     1      23.976   3.082  53.794  0.00  0.00    +0.000 HD
ENDBRANCH  32  33
ENDBRANCH  25  32
ENDBRANCH  23  25
ENDBRANCH  13  23
TORSDOF 8
ENDMDL
MODEL 2
REMARK VINA RESULT:    -8.211      2.943      3.479
REMARK INTER + INTRA:         -12.593
REMARK INTER:                 -11.636
REMARK INTRA:                  -0.957
REMARK UNBOUND:                -0.782
REMARK  Name = 
REMARK  10 active torsions:
REMARK  status: ('A' for Active; 'I' for Inactive)
REMARK    1  A    between atoms: C_1  and  N_2
REMARK    2  A    between atoms: N_2  and  C_3
REMARK    3  A    between atoms: N_2  and  C_4
REMARK    4  A    between atoms: C_4  and  C_5
REMARK    5  A    between atoms: C_6  and  C_7
REMARK    6  A    between atoms: C_19  and  N_20
REMARK    7  A    between atoms: N_20  and  CA_21
REMARK    8  A    between atoms: CA_21  and  C_22
REMARK    9  A    between atoms: CA_21  and  C_24
REMARK   10  A    between atoms: C_22  and  O_23
REMARK                            x       y       z     vdW  Elec       q    Type
REMARK                         _______ _______ _______ _____ _____    ______ ____
ROOT
ATOM      1  C   UNL     1      22.363   5.329  49.746  0.00  0.00    +0.000 C 
ATOM      2  O   UNL     1      23.501   5.605  49.364  0.00  0.00    +0.000 OA
ATOM      3  N   UNL     1      21.844   4.050  49.609  0.00  0.00    +0.000 N 
ATOM      4  C   UNL     1      22.750   3.000  49.114  0.00  0.00    +0.000 C 
ATOM      5  C   UNL     1      23.358   2.208  50.300  0.00  0.00    +0.000 C 
ATOM      6  C   UNL     1      22.283   1.839  51.299  0.00  0.00    +0.000 A 
ATOM      7  C   UNL     1      21.036   2.453  51.209  0.00  0.00    +0.000 A 
ATOM      8  S   UNL     1      19.927   1.850  52.339  0.00  0.00    +0.000 S 
ATOM      9  C   UNL     1      21.116   0.868  53.058  0.00  0.00    +0.000 A 
ATOM     10  N   UNL     1      20.772   0.138  54.128  0.00  0.00    +0.000 NA
ATOM     11  C   UNL     1      21.801  -0.535  54.629  0.00  0.00    +0.000 A 
ATOM     12  N   UNL     1      23.064  -0.533  54.187  0.00  0.00    +0.000 NA
ATOM     13  C   UNL     1      23.395   0.194  53.091  0.00  0.00    +0.000 A 
ATOM     14  C   UNL     1      22.365   0.946  52.450  0.00  0.00    +0.000 A 
ATOM     15  C   UNL     1      20.625   3.519  50.227  0.00  0.00    +0.000 C 
ENDROOT
BRANCH   1  17
ATOM     16  C   UNL     1      21.010   7.381  49.606  0.00  0.00    +0.000 C 
ATOM     17  C   UNL     1      21.524   6.396  50.367  0.00  0.00    +0.000 C 
BRANCH  16  18
ATOM     18  C   UNL     1      20.172   8.514  50.126  0.00  0.00    +0.000 C 
BRANCH  18  20
ATOM     19  C   UNL     1      18.452  10.039  49.339  0.00  0.00    +0.000 C 
ATOM     20  N   UNL     1      18.893   8.644  49.417  0.00  0.00    +0.000 N 
ATOM     21  C   UNL     1      19.010   8.092  48.063  0.00  0.00    +0.000 C 
ATOM     22  H   UNL     1      18.195   8.121  49.945  0.00  0.00    +0.000 HD
ENDBRANCH  18  20
ENDBRANCH  16  18
ENDBRANCH   1  17
BRANCH  13  23
ATOM     23  N   UNL     1      24.727   0.187  52.669  0.00  0.00    +0.000 N 
ATOM     24  H   UNL     1      25.003  -0.295  51.856  0.00  0.00    +0.000 HD
BRANCH  23  25
ATOM     25  CA  UNL     1      25.715   0.936  53.493  0.00  0.00    +0.000 C 
BRANCH  25  26
ATOM     26  C   UNL     1      27.100   0.285  53.502  0.00  0.00    +0.000 A 
ATOM     27  C   UNL     1      28.238   1.018  53.888  0.00  0.00    +0.000 A 
ATOM     28  C   UNL     1      29.509   0.427  53.886  0.00  0.00    +0.000 A 
ATOM     29  C   UNL     1      29.667  -0.907  53.503  0.00  0.00    +0.000 A 
ATOM     30  C   UNL     1      28.554  -1.633  53.088  0.00  0.00    +0.000 A 
ATOM     31  C   UNL     1      27.285  -1.037  53.075  0.00  0.00    +0.000 A 
ENDBRANCH  25  26
BRANCH  25  32
ATOM     32  C   UNL     1      25.784   2.406  52.991  0.00  0.00    +0.000 C 
BRANCH  32  33
ATOM     33  O   UNL     1      24.808   3.257  53.600  0.00  0.00    +0.000 OA
ATOM     34  H   UNL     1      24.603   3.993  53.001  0.00  0.00    +0.000 HD
ENDBRANCH  32  33
ENDBRANCH  25  32
ENDBRANCH  23  25
ENDBRANCH  13  23
TORSDOF 8
ENDMDL
MODEL 3
REMARK VINA RESULT:    -8.115      3.489      4.857
REMARK INTER + INTRA:         -12.455
REMARK INTER:                 -10.972
REMARK INTRA:                  -1.483
REMARK UNBOUND:                -0.782
REMARK  Name = 
REMARK  10 active torsions:
REMARK  status: ('A' for Active; 'I' for Inactive)
REMARK    1  A    between atoms: C_1  and  N_2
REMARK    2  A    between atoms: N_2  and  C_3
REMARK    3  A    between atoms: N_2  and  C_4
REMARK    4  A    between atoms: C_4  and  C_5
REMARK    5  A    between atoms: C_6  and  C_7
REMARK    6  A    between atoms: C_19  and  N_20
REMARK    7  A    between atoms: N_20  and  CA_21
REMARK    8  A    between atoms: CA_21  and  C_22
REMARK    9  A    between atoms: CA_21  and  C_24
REMARK   10  A    between atoms: C_22  and  O_23
REMARK                            x       y       z     vdW  Elec       q    Type
REMARK                         _______ _______ _______ _____ _____    ______ ____
ROOT
ATOM      1  C   UNL     1      24.361   5.565  49.787  0.00  0.00    +0.000 C 
ATOM      2  O   UNL     1      25.232   5.839  50.614  0.00  0.00    +0.000 OA
ATOM      3  N   UNL     1      24.179   4.267  49.331  0.00  0.00    +0.000 N 
ATOM      4  C   UNL     1      24.974   3.206  49.971  0.00  0.00    +0.000 C 
ATOM      5  C   UNL     1      24.151   2.516  51.090  0.00  0.00    +0.000 C 
ATOM      6  C   UNL     1      22.755   2.195  50.601  0.00  0.00    +0.000 A 
ATOM      7  C   UNL     1      22.303   2.772  49.416  0.00  0.00    +0.000 A 
ATOM      8  S   UNL     1      20.763   2.226  48.970  0.00  0.00    +0.000 S 
ATOM      9  C   UNL     1      20.609   1.326  50.406  0.00  0.00    +0.000 A 
ATOM     10  N   UNL     1      19.462   0.668  50.620  0.00  0.00    +0.000 NA
ATOM     11  C   UNL     1      19.446   0.057  51.799  0.00  0.00    +0.000 A 
ATOM     12  N   UNL     1      20.412   0.057  52.725  0.00  0.00    +0.000 NA
ATOM     13  C   UNL     1      21.576   0.709  52.487  0.00  0.00    +0.000 A 
ATOM     14  C   UNL     1      21.720   1.390  51.241  0.00  0.00    +0.000 A 
ATOM     15  C   UNL     1      23.048   3.755  48.551  0.00  0.00    +0.000 C 
ENDROOT
BRANCH   1  17
ATOM     16  C   UNL     1      22.615   7.275  50.081  0.00  0.00    +0.000 C 
ATOM     17  C   UNL     1      23.486   6.655  49.263  0.00  0.00    +0.000 C 
BRANCH  16  18
ATOM     18  C   UNL     1      21.674   8.367  49.657  0.00  0.00    +0.000 C 
BRANCH  18  20
ATOM     19  C   UNL     1      19.435   9.289  49.858  0.00  0.00    +0.000 C 
ATOM     20  N   UNL     1      20.293   8.125  50.092  0.00  0.00    +0.000 N 
ATOM     21  C   UNL     1      19.741   6.962  49.391  0.00  0.00    +0.000 C 
ATOM     22  H   UNL     1      20.315   7.946  51.096  0.00  0.00    +0.000 HD
ENDBRANCH  18  20
ENDBRANCH  16  18
ENDBRANCH   1  17
BRANCH  13  23
ATOM     23  N   UNL     1      22.555   0.703  53.485  0.00  0.00    +0.000 N 
ATOM     24  H   UNL     1      22.666   1.467  54.096  0.00  0.00    +0.000 HD
BRANCH  23  25
ATOM     25  CA  UNL     1      23.424  -0.501  53.590  0.00  0.00    +0.000 C 
BRANCH  25  26
ATOM     26  C   UNL     1      24.915  -0.170  53.490  0.00  0.00    +0.000 A 
ATOM     27  C   UNL     1      25.398   1.098  53.864  0.00  0.00    +0.000 A 
ATOM     28  C   UNL     1      26.762   1.408  53.763  0.00  0.00    +0.000 A 
ATOM     29  C   UNL     1      27.669   0.456  53.290  0.00  0.00    +0.000 A 
ATOM     30  C   UNL     1      27.199  -0.790  52.886  0.00  0.00    +0.000 A 
ATOM     31  C   UNL     1      25.833  -1.094  52.972  0.00  0.00    +0.000 A 
ENDBRANCH  25  26
BRANCH  25  32
ATOM     32  C   UNL     1      23.098  -1.249  54.913  0.00  0.00    +0.000 C 
BRANCH  32  33
ATOM     33  O   UNL     1      21.742  -1.698  54.987  0.00  0.00    +0.000 OA
ATOM     34  H   UNL     1      21.355  -1.421  55.833  0.00  0.00    +0.000 HD
ENDBRANCH  32  33
ENDBRANCH  25  32
ENDBRANCH  23  25
ENDBRANCH  13  23
TORSDOF 8
ENDMDL
MODEL 4
REMARK VINA RESULT:    -8.082      2.706      4.224
REMARK INTER + INTRA:         -12.409
REMARK INTER:                 -11.770
REMARK INTRA:                  -0.639
REMARK UNBOUND:                -0.782
REMARK  Name = 
REMARK  10 active torsions:
REMARK  status: ('A' for Active; 'I' for Inactive)
REMARK    1  A    between atoms: C_1  and  N_2
REMARK    2  A    between atoms: N_2  and  C_3
REMARK    3  A    between atoms: N_2  and  C_4
REMARK    4  A    between atoms: C_4  and  C_5
REMARK    5  A    between atoms: C_6  and  C_7
REMARK    6  A    between atoms: C_19  and  N_20
REMARK    7  A    between atoms: N_20  and  CA_21
REMARK    8  A    between atoms: CA_21  and  C_22
REMARK    9  A    between atoms: CA_21  and  C_24
REMARK   10  A    between atoms: C_22  and  O_23
REMARK                            x       y       z     vdW  Elec       q    Type
REMARK                         _______ _______ _______ _____ _____    ______ ____
ROOT
ATOM      1  C   UNL     1      20.263   0.430  52.112  0.00  0.00    +0.000 C 
ATOM      2  O   UNL     1      20.502  -0.763  52.304  0.00  0.00    +0.000 OA
ATOM      3  N   UNL     1      20.995   1.425  52.742  0.00  0.00    +0.000 N 
ATOM      4  C   UNL     1      22.157   1.007  53.544  0.00  0.00    +0.000 C 
ATOM      5  C   UNL     1      23.458   1.117  52.707  0.00  0.00    +0.000 C 
ATOM      6  C   UNL     1      23.508   2.441  51.975  0.00  0.00    +0.000 A 
ATOM      7  C   UNL     1      22.353   3.215  51.896  0.00  0.00    +0.000 A 
ATOM      8  S   UNL     1      22.615   4.704  51.132  0.00  0.00    +0.000 S 
ATOM      9  C   UNL     1      24.226   4.292  50.768  0.00  0.00    +0.000 A 
ATOM     10  N   UNL     1      24.959   5.167  50.066  0.00  0.00    +0.000 NA
ATOM     11  C   UNL     1      26.174   4.702  49.798  0.00  0.00    +0.000 A 
ATOM     12  N   UNL     1      26.680   3.512  50.140  0.00  0.00    +0.000 NA
ATOM     13  C   UNL     1      25.935   2.644  50.868  0.00  0.00    +0.000 A 
ATOM     14  C   UNL     1      24.614   3.041  51.236  0.00  0.00    +0.000 A 
ATOM     15  C   UNL     1      20.990   2.858  52.431  0.00  0.00    +0.000 C 
ENDROOT
BRANCH   1  17
ATOM     16  C   UNL     1      17.878   0.760  51.599  0.00  0.00    +0.000 C 
ATOM     17  C   UNL     1      19.157   0.811  51.184  0.00  0.00    +0.000 C 
BRANCH  16  18
ATOM     18  C   UNL     1      16.689   1.101  50.747  0.00  0.00    +0.000 C 
BRANCH  18  20
ATOM     19  C   UNL     1      15.050   1.970  52.317  0.00  0.00    +0.000 C 
ATOM     20  N   UNL     1      15.972   2.290  51.224  0.00  0.00    +0.000 N 
ATOM     21  C   UNL     1      16.928   3.308  51.673  0.00  0.00    +0.000 C 
ATOM     22  H   UNL     1      15.423   2.650  50.443  0.00  0.00    +0.000 HD
ENDBRANCH  18  20
ENDBRANCH  16  18
ENDBRANCH   1  17
BRANCH  13  23
ATOM     23  N   UNL     1      26.490   1.403  51.191  0.00  0.00    +0.000 N 
ATOM     24  H   UNL     1      26.538   0.677  50.528  0.00  0.00    +0.000 HD
BRANCH  23  25
ATOM     25  CA  UNL     1      27.005   1.218  52.575  0.00  0.00    +0.000 C 
BRANCH  25  26
ATOM     26  C   UNL     1      27.637  -0.158  52.797  0.00  0.00    +0.000 A 
ATOM     27  C   UNL     1      26.912  -1.335  52.533  0.00  0.00    +0.000 A 
ATOM     28  C   UNL     1      27.485  -2.597  52.747  0.00  0.00    +0.000 A 
ATOM     29  C   UNL     1      28.794  -2.706  53.225  0.00  0.00    +0.000 A 
ATOM     30  C   UNL     1      29.509  -1.550  53.521  0.00  0.00    +0.000 A 
ATOM     31  C   UNL     1      28.931  -0.288  53.322  0.00  0.00    +0.000 A 
ENDBRANCH  25  26
BRANCH  25  32
ATOM     32  C   UNL     1      28.008   2.361  52.901  0.00  0.00    +0.000 C 
BRANCH  32  33
ATOM     33  O   UNL     1      27.933   2.808  54.258  0.00  0.00    +0.000 OA
ATOM     34  H   UNL     1      27.018   2.736  54.572  0.00  0.00    +0.000 HD
ENDBRANCH  32  33
ENDBRANCH  25  32
ENDBRANCH  23  25
ENDBRANCH  13  23
TORSDOF 8
ENDMDL
MODEL 5
REMARK VINA RESULT:    -8.064      4.233      8.433
REMARK INTER + INTRA:         -12.382
REMARK INTER:                 -12.116
REMARK INTRA:                  -0.266
REMARK UNBOUND:                -0.782
REMARK  Name = 
REMARK  10 active torsions:
REMARK  status: ('A' for Active; 'I' for Inactive)
REMARK    1  A    between atoms: C_1  and  N_2
REMARK    2  A    between atoms: N_2  and  C_3
REMARK    3  A    between atoms: N_2  and  C_4
REMARK    4  A    between atoms: C_4  and  C_5
REMARK    5  A    between atoms: C_6  and  C_7
REMARK    6  A    between atoms: C_19  and  N_20
REMARK    7  A    between atoms: N_20  and  CA_21
REMARK    8  A    between atoms: CA_21  and  C_22
REMARK    9  A    between atoms: CA_21  and  C_24
REMARK   10  A    between atoms: C_22  and  O_23
REMARK                            x       y       z     vdW  Elec       q    Type
REMARK                         _______ _______ _______ _____ _____    ______ ____
ROOT
ATOM      1  C   UNL     1      24.467   2.075  52.761  0.00  0.00    +0.000 C 
ATOM      2  O   UNL     1      24.972   2.944  53.474  0.00  0.00    +0.000 OA
ATOM      3  N   UNL     1      23.196   2.227  52.225  0.00  0.00    +0.000 N 
ATOM      4  C   UNL     1      22.527   3.523  52.427  0.00  0.00    +0.000 C 
ATOM      5  C   UNL     1      22.737   4.436  51.191  0.00  0.00    +0.000 C 
ATOM      6  C   UNL     1      22.480   3.667  49.913  0.00  0.00    +0.000 A 
ATOM      7  C   UNL     1      22.391   2.278  49.965  0.00  0.00    +0.000 A 
ATOM      8  S   UNL     1      22.003   1.593  48.465  0.00  0.00    +0.000 S 
ATOM      9  C   UNL     1      22.085   3.107  47.693  0.00  0.00    +0.000 A 
ATOM     10  N   UNL     1      21.889   3.153  46.368  0.00  0.00    +0.000 NA
ATOM     11  C   UNL     1      22.038   4.379  45.881  0.00  0.00    +0.000 A 
ATOM     12  N   UNL     1      22.356   5.487  46.559  0.00  0.00    +0.000 NA
ATOM     13  C   UNL     1      22.530   5.431  47.902  0.00  0.00    +0.000 A 
ATOM     14  C   UNL     1      22.376   4.167  48.546  0.00  0.00    +0.000 A 
ATOM     15  C   UNL     1      22.574   1.408  51.181  0.00  0.00    +0.000 C 
ENDROOT
BRANCH   1  17
ATOM     16  C   UNL     1      26.298   0.499  53.235  0.00  0.00    +0.000 C 
ATOM     17  C   UNL     1      25.239   0.830  52.472  0.00  0.00    +0.000 C 
BRANCH  16  18
ATOM     18  C   UNL     1      27.157  -0.715  53.023  0.00  0.00    +0.000 C 
BRANCH  18  20
ATOM     19  C   UNL     1      29.431  -1.452  53.460  0.00  0.00    +0.000 C 
ATOM     20  N   UNL     1      28.228  -0.832  54.021  0.00  0.00    +0.000 N 
ATOM     21  C   UNL     1      28.565   0.492  54.555  0.00  0.00    +0.000 C 
ATOM     22  H   UNL     1      27.884  -1.431  54.771  0.00  0.00    +0.000 HD
ENDBRANCH  18  20
ENDBRANCH  16  18
ENDBRANCH   1  17
BRANCH  13  23
ATOM     23  N   UNL     1      22.879   6.606  48.575  0.00  0.00    +0.000 N 
ATOM     24  H   UNL     1      22.469   7.469  48.341  0.00  0.00    +0.000 HD
BRANCH  23  25
ATOM     25  CA  UNL     1      23.893   6.503  49.660  0.00  0.00    +0.000 C 
BRANCH  25  26
ATOM     26  C   UNL     1      25.319   6.339  49.129  0.00  0.00    +0.000 A 
ATOM     27  C   UNL     1      25.947   7.378  48.417  0.00  0.00    +0.000 A 
ATOM     28  C   UNL     1      27.249   7.227  47.919  0.00  0.00    +0.000 A 
ATOM     29  C   UNL     1      27.949   6.035  48.126  0.00  0.00    +0.000 A 
ATOM     30  C   UNL     1      27.328   4.988  48.800  0.00  0.00    +0.000 A 
ATOM     31  C   UNL     1      26.020   5.134  49.284  0.00  0.00    +0.000 A 
ENDBRANCH  25  26
BRANCH  25  32
ATOM     32  C   UNL     1      23.774   7.745  50.586  0.00  0.00    +0.000 C 
BRANCH  32  33
ATOM     33  O   UNL     1      24.254   7.508  51.913  0.00  0.00    +0.000 OA
ATOM     34  H   UNL     1      23.873   6.683  52.252  0.00  0.00    +0.000 HD
ENDBRANCH  32  33
ENDBRANCH  25  32
ENDBRANCH  23  25
ENDBRANCH  13  23
TORSDOF 8
ENDMDL
MODEL 6
REMARK VINA RESULT:    -7.741      2.068      3.074
REMARK INTER + INTRA:         -11.917
REMARK INTER:                 -10.747
REMARK INTRA:                  -1.170
REMARK UNBOUND:                -0.782
REMARK  Name = 
REMARK  10 active torsions:
REMARK  status: ('A' for Active; 'I' for Inactive)
REMARK    1  A    between atoms: C_1  and  N_2
REMARK    2  A    between atoms: N_2  and  C_3
REMARK    3  A    between atoms: N_2  and  C_4
REMARK    4  A    between atoms: C_4  and  C_5
REMARK    5  A    between atoms: C_6  and  C_7
REMARK    6  A    between atoms: C_19  and  N_20
REMARK    7  A    between atoms: N_20  and  CA_21
REMARK    8  A    between atoms: CA_21  and  C_22
REMARK    9  A    between atoms: CA_21  and  C_24
REMARK   10  A    between atoms: C_22  and  O_23
REMARK                            x       y       z     vdW  Elec       q    Type
REMARK                         _______ _______ _______ _____ _____    ______ ____
ROOT
ATOM      1  C   UNL     1      17.669   3.953  50.390  0.00  0.00    +0.000 C 
ATOM      2  O   UNL     1      18.284   4.988  50.129  0.00  0.00    +0.000 OA
ATOM      3  N   UNL     1      18.192   2.704  50.087  0.00  0.00    +0.000 N 
ATOM      4  C   UNL     1      19.568   2.654  49.566  0.00  0.00    +0.000 C 
ATOM      5  C   UNL     1      20.570   2.368  50.714  0.00  0.00    +0.000 C 
ATOM      6  C   UNL     1      20.072   1.233  51.582  0.00  0.00    +0.000 A 
ATOM      7  C   UNL     1      18.750   0.811  51.453  0.00  0.00    +0.000 A 
ATOM      8  S   UNL     1      18.395  -0.529  52.426  0.00  0.00    +0.000 S 
ATOM      9  C   UNL     1      19.939  -0.487  53.139  0.00  0.00    +0.000 A 
ATOM     10  N   UNL     1      20.216  -1.378  54.102  0.00  0.00    +0.000 NA
ATOM     11  C   UNL     1      21.428  -1.201  54.615  0.00  0.00    +0.000 A 
ATOM     12  N   UNL     1      22.323  -0.266  54.278  0.00  0.00    +0.000 NA
ATOM     13  C   UNL     1      22.038   0.616  53.289  0.00  0.00    +0.000 A 
ATOM     14  C   UNL     1      20.769   0.513  52.644  0.00  0.00    +0.000 A 
ATOM     15  C   UNL     1      17.700   1.403  50.551  0.00  0.00    +0.000 C 
ENDROOT
BRANCH   1  17
ATOM     16  C   UNL     1      16.235   4.109  52.385  0.00  0.00    +0.000 C 
ATOM     17  C   UNL     1      16.329   4.046  51.044  0.00  0.00    +0.000 C 
BRANCH  16  18
ATOM     18  C   UNL     1      14.943   4.184  53.147  0.00  0.00    +0.000 C 
BRANCH  18  20
ATOM     19  C   UNL     1      13.501   2.228  53.125  0.00  0.00    +0.000 C 
ATOM     20  N   UNL     1      13.842   3.491  52.466  0.00  0.00    +0.000 N 
ATOM     21  C   UNL     1      12.657   4.354  52.419  0.00  0.00    +0.000 C 
ATOM     22  H   UNL     1      14.154   3.279  51.518  0.00  0.00    +0.000 HD
ENDBRANCH  18  20
ENDBRANCH  16  18
ENDBRANCH   1  17
BRANCH  13  23
ATOM     23  N   UNL     1      22.989   1.592  52.976  0.00  0.00    +0.000 N 
ATOM     24  H   UNL     1      22.821   2.545  53.155  0.00  0.00    +0.000 HD
BRANCH  23  25
ATOM     25  CA  UNL     1      24.267   1.136  52.363  0.00  0.00    +0.000 C 
BRANCH  25  26
ATOM     26  C   UNL     1      24.801   2.107  51.307  0.00  0.00    +0.000 A 
ATOM     27  C   UNL     1      26.180   2.360  51.192  0.00  0.00    +0.000 A 
ATOM     28  C   UNL     1      26.671   3.257  50.233  0.00  0.00    +0.000 A 
ATOM     29  C   UNL     1      25.793   3.916  49.369  0.00  0.00    +0.000 A 
ATOM     30  C   UNL     1      24.424   3.700  49.494  0.00  0.00    +0.000 A 
ATOM     31  C   UNL     1      23.932   2.815  50.463  0.00  0.00    +0.000 A 
ENDBRANCH  25  26
BRANCH  25  32
ATOM     32  C   UNL     1      25.312   0.895  53.488  0.00  0.00    +0.000 C 
BRANCH  32  33
ATOM     33  O   UNL     1      25.372  -0.468  53.919  0.00  0.00    +0.000 OA
ATOM     34  H   UNL     1      24.814  -1.015  53.343  0.00  0.00    +0.000 HD
ENDBRANCH  32  33
ENDBRANCH  25  32
ENDBRANCH  23  25
ENDBRANCH  13  23
TORSDOF 8
ENDMDL
MODEL 7
REMARK VINA RESULT:    -7.699      3.039      4.364
REMARK INTER + INTRA:         -11.857
REMARK INTER:                 -10.901
REMARK INTRA:                  -0.955
REMARK UNBOUND:                -0.782
REMARK  Name = 
REMARK  10 active torsions:
REMARK  status: ('A' for Active; 'I' for Inactive)
REMARK    1  A    between atoms: C_1  and  N_2
REMARK    2  A    between atoms: N_2  and  C_3
REMARK    3  A    between atoms: N_2  and  C_4
REMARK    4  A    between atoms: C_4  and  C_5
REMARK    5  A    between atoms: C_6  and  C_7
REMARK    6  A    between atoms: C_19  and  N_20
REMARK    7  A    between atoms: N_20  and  CA_21
REMARK    8  A    between atoms: CA_21  and  C_22
REMARK    9  A    between atoms: CA_21  and  C_24
REMARK   10  A    between atoms: C_22  and  O_23
REMARK                            x       y       z     vdW  Elec       q    Type
REMARK                         _______ _______ _______ _____ _____    ______ ____
ROOT
ATOM      1  C   UNL     1      19.414   0.506  51.937  0.00  0.00    +0.000 C 
ATOM      2  O   UNL     1      19.463  -0.354  52.817  0.00  0.00    +0.000 OA
ATOM      3  N   UNL     1      20.010   1.748  52.105  0.00  0.00    +0.000 N 
ATOM      4  C   UNL     1      20.819   1.953  53.319  0.00  0.00    +0.000 C 
ATOM      5  C   UNL     1      22.319   1.705  53.015  0.00  0.00    +0.000 C 
ATOM      6  C   UNL     1      22.724   2.404  51.735  0.00  0.00    +0.000 A 
ATOM      7  C   UNL     1      21.733   2.893  50.888  0.00  0.00    +0.000 A 
ATOM      8  S   UNL     1      22.366   3.730  49.558  0.00  0.00    +0.000 S 
ATOM      9  C   UNL     1      23.960   3.339  50.005  0.00  0.00    +0.000 A 
ATOM     10  N   UNL     1      24.958   3.746  49.208  0.00  0.00    +0.000 NA
ATOM     11  C   UNL     1      26.144   3.328  49.635  0.00  0.00    +0.000 A 
ATOM     12  N   UNL     1      26.399   2.578  50.713  0.00  0.00    +0.000 NA
ATOM     13  C   UNL     1      25.383   2.190  51.522  0.00  0.00    +0.000 A 
ATOM     14  C   UNL     1      24.059   2.597  51.177  0.00  0.00    +0.000 A 
ATOM     15  C   UNL     1      20.244   2.764  51.074  0.00  0.00    +0.000 C 
ENDROOT
BRANCH   1  17
ATOM     16  C   UNL     1      17.365  -0.000  50.671  0.00  0.00    +0.000 C 
ATOM     17  C   UNL     1      18.695   0.207  50.664  0.00  0.00    +0.000 C 
BRANCH  16  18
ATOM     18  C   UNL     1      16.544  -0.328  49.457  0.00  0.00    +0.000 C 
BRANCH  18  20
ATOM     19  C   UNL     1      14.910  -2.004  48.802  0.00  0.00    +0.000 C 
ATOM     20  N   UNL     1      15.275  -0.986  49.792  0.00  0.00    +0.000 N 
ATOM     21  C   UNL     1      15.363  -1.604  51.119  0.00  0.00    +0.000 C 
ATOM     22  H   UNL     1      14.549  -0.270  49.790  0.00  0.00    +0.000 HD
ENDBRANCH  18  20
ENDBRANCH  16  18
ENDBRANCH   1  17
BRANCH  13  23
ATOM     23  N   UNL     1      25.684   1.391  52.629  0.00  0.00    +0.000 N 
ATOM     24  H   UNL     1      25.694   1.764  53.540  0.00  0.00    +0.000 HD
BRANCH  23  25
ATOM     25  CA  UNL     1      25.989  -0.044  52.380  0.00  0.00    +0.000 C 
BRANCH  25  26
ATOM     26  C   UNL     1      27.389  -0.446  52.851  0.00  0.00    +0.000 A 
ATOM     27  C   UNL     1      27.814  -1.786  52.785  0.00  0.00    +0.000 A 
ATOM     28  C   UNL     1      29.091  -2.159  53.227  0.00  0.00    +0.000 A 
ATOM     29  C   UNL     1      29.969  -1.200  53.740  0.00  0.00    +0.000 A 
ATOM     30  C   UNL     1      29.549   0.123  53.841  0.00  0.00    +0.000 A 
ATOM     31  C   UNL     1      28.265   0.493  53.414  0.00  0.00    +0.000 A 
ENDBRANCH  25  26
BRANCH  25  32
ATOM     32  C   UNL     1      24.894  -0.920  53.050  0.00  0.00    +0.000 C 
BRANCH  32  33
ATOM     33  O   UNL     1      24.638  -0.560  54.411  0.00  0.00    +0.000 OA
ATOM     34  H   UNL     1      25.466  -0.280  54.833  0.00  0.00    +0.000 HD
ENDBRANCH  32  33
ENDBRANCH  25  32
ENDBRANCH  23  25
ENDBRANCH  13  23
TORSDOF 8
ENDMDL
MODEL 8
REMARK VINA RESULT:    -7.502      2.654      3.803
REMARK INTER + INTRA:         -11.574
REMARK INTER:                 -10.738
REMARK INTRA:                  -0.837
REMARK UNBOUND:                -0.782
REMARK  Name = 
REMARK  10 active torsions:
REMARK  status: ('A' for Active; 'I' for Inactive)
REMARK    1  A    between atoms: C_1  and  N_2
REMARK    2  A    between atoms: N_2  and  C_3
REMARK    3  A    between atoms: N_2  and  C_4
REMARK    4  A    between atoms: C_4  and  C_5
REMARK    5  A    between atoms: C_6  and  C_7
REMARK    6  A    between atoms: C_19  and  N_20
REMARK    7  A    between atoms: N_20  and  CA_21
REMARK    8  A    between atoms: CA_21  and  C_22
REMARK    9  A    between atoms: CA_21  and  C_24
REMARK   10  A    between atoms: C_22  and  O_23
REMARK                            x       y       z     vdW  Elec       q    Type
REMARK                         _______ _______ _______ _____ _____    ______ ____
ROOT
ATOM      1  C   UNL     1      15.455   1.809  51.082  0.00  0.00    +0.000 C 
ATOM      2  O   UNL     1      15.614   2.792  50.357  0.00  0.00    +0.000 OA
ATOM      3  N   UNL     1      16.147   0.627  50.861  0.00  0.00    +0.000 N 
ATOM      4  C   UNL     1      17.180   0.633  49.811  0.00  0.00    +0.000 C 
ATOM      5  C   UNL     1      18.579   0.884  50.433  0.00  0.00    +0.000 C 
ATOM      6  C   UNL     1      18.779   0.016  51.656  0.00  0.00    +0.000 A 
ATOM      7  C   UNL     1      17.679  -0.627  52.217  0.00  0.00    +0.000 A 
ATOM      8  S   UNL     1      18.102  -1.632  53.514  0.00  0.00    +0.000 S 
ATOM      9  C   UNL     1      19.725  -1.125  53.445  0.00  0.00    +0.000 A 
ATOM     10  N   UNL     1      20.579  -1.612  54.356  0.00  0.00    +0.000 NA
ATOM     11  C   UNL     1      21.795  -1.094  54.231  0.00  0.00    +0.000 A 
ATOM     12  N   UNL     1      22.201  -0.183  53.339  0.00  0.00    +0.000 NA
ATOM     13  C   UNL     1      21.332   0.286  52.410  0.00  0.00    +0.000 A 
ATOM     14  C   UNL     1      19.995  -0.213  52.430  0.00  0.00    +0.000 A 
ATOM     15  C   UNL     1      16.246  -0.523  51.765  0.00  0.00    +0.000 C 
ENDROOT
BRANCH   1  17
ATOM     16  C   UNL     1      13.168   1.941  51.983  0.00  0.00    +0.000 C 
ATOM     17  C   UNL     1      14.492   1.890  52.220  0.00  0.00    +0.000 C 
BRANCH  16  18
ATOM     18  C   UNL     1      12.113   2.045  53.048  0.00  0.00    +0.000 C 
BRANCH  18  20
ATOM     19  C   UNL     1      12.502   4.097  54.290  0.00  0.00    +0.000 C 
ATOM     20  N   UNL     1      12.621   2.637  54.292  0.00  0.00    +0.000 N 
ATOM     21  C   UNL     1      11.895   2.089  55.443  0.00  0.00    +0.000 C 
ATOM     22  H   UNL     1      13.611   2.400  54.362  0.00  0.00    +0.000 HD
ENDBRANCH  18  20
ENDBRANCH  16  18
ENDBRANCH   1  17
BRANCH  13  23
ATOM     23  N   UNL     1      21.786   1.251  51.505  0.00  0.00    +0.000 N 
ATOM     24  H   UNL     1      21.602   1.173  50.542  0.00  0.00    +0.000 HD
BRANCH  23  25
ATOM     25  CA  UNL     1      22.555   2.401  52.053  0.00  0.00    +0.000 C 
BRANCH  25  26
ATOM     26  C   UNL     1      23.888   2.623  51.335  0.00  0.00    +0.000 A 
ATOM     27  C   UNL     1      25.094   2.164  51.896  0.00  0.00    +0.000 A 
ATOM     28  C   UNL     1      26.318   2.376  51.245  0.00  0.00    +0.000 A 
ATOM     29  C   UNL     1      26.359   3.048  50.021  0.00  0.00    +0.000 A 
ATOM     30  C   UNL     1      25.177   3.535  49.472  0.00  0.00    +0.000 A 
ATOM     31  C   UNL     1      23.955   3.337  50.130  0.00  0.00    +0.000 A 
ENDBRANCH  25  26
BRANCH  25  32
ATOM     32  C   UNL     1      21.667   3.676  52.004  0.00  0.00    +0.000 C 
BRANCH  32  33
ATOM     33  O   UNL     1      20.371   3.484  52.581  0.00  0.00    +0.000 OA
ATOM     34  H   UNL     1      20.370   2.669  53.107  0.00  0.00    +0.000 HD
ENDBRANCH  32  33
ENDBRANCH  25  32
ENDBRANCH  23  25
ENDBRANCH  13  23
TORSDOF 8
ENDMDL
MODEL 9
REMARK VINA RESULT:    -7.501      3.324      4.483
REMARK INTER + INTRA:         -11.572
REMARK INTER:                 -10.318
REMARK INTRA:                  -1.254
REMARK UNBOUND:                -0.782
REMARK  Name = 
REMARK  10 active torsions:
REMARK  status: ('A' for Active; 'I' for Inactive)
REMARK    1  A    between atoms: C_1  and  N_2
REMARK    2  A    between atoms: N_2  and  C_3
REMARK    3  A    between atoms: N_2  and  C_4
REMARK    4  A    between atoms: C_4  and  C_5
REMARK    5  A    between atoms: C_6  and  C_7
REMARK    6  A    between atoms: C_19  and  N_20
REMARK    7  A    between atoms: N_20  and  CA_21
REMARK    8  A    between atoms: CA_21  and  C_22
REMARK    9  A    between atoms: CA_21  and  C_24
REMARK   10  A    between atoms: C_22  and  O_23
REMARK                            x       y       z     vdW  Elec       q    Type
REMARK                         _______ _______ _______ _____ _____    ______ ____
ROOT
ATOM      1  C   UNL     1      21.750   4.693  48.751  0.00  0.00    +0.000 C 
ATOM      2  O   UNL     1      22.777   5.230  49.169  0.00  0.00    +0.000 OA
ATOM      3  N   UNL     1      21.663   3.316  48.603  0.00  0.00    +0.000 N 
ATOM      4  C   UNL     1      22.793   2.508  49.092  0.00  0.00    +0.000 C 
ATOM      5  C   UNL     1      22.502   1.985  50.522  0.00  0.00    +0.000 C 
ATOM      6  C   UNL     1      21.102   1.416  50.605  0.00  0.00    +0.000 A 
ATOM      7  C   UNL     1      20.204   1.675  49.573  0.00  0.00    +0.000 A 
ATOM      8  S   UNL     1      18.722   0.881  49.782  0.00  0.00    +0.000 S 
ATOM      9  C   UNL     1      19.193   0.295  51.309  0.00  0.00    +0.000 A 
ATOM     10  N   UNL     1      18.307  -0.426  52.010  0.00  0.00    +0.000 NA
ATOM     11  C   UNL     1      18.774  -0.771  53.204  0.00  0.00    +0.000 A 
ATOM     12  N   UNL     1      19.968  -0.469  53.726  0.00  0.00    +0.000 NA
ATOM     13  C   UNL     1      20.863   0.243  52.998  0.00  0.00    +0.000 A 
ATOM     14  C   UNL     1      20.482   0.655  51.686  0.00  0.00    +0.000 A 
ATOM     15  C   UNL     1      20.451   2.528  48.356  0.00  0.00    +0.000 C 
ENDROOT
BRANCH   1  17
ATOM     16  C   UNL     1      20.583   6.859  48.678  0.00  0.00    +0.000 C 
ATOM     17  C   UNL     1      20.577   5.543  48.391  0.00  0.00    +0.000 C 
BRANCH  16  18
ATOM     18  C   UNL     1      19.453   7.802  48.382  0.00  0.00    +0.000 C 
BRANCH  18  20
ATOM     19  C   UNL     1      18.968  10.142  47.940  0.00  0.00    +0.000 C 
ATOM     20  N   UNL     1      19.777   9.196  48.712  0.00  0.00    +0.000 N 
ATOM     21  C   UNL     1      19.572   9.434  50.145  0.00  0.00    +0.000 C 
ATOM     22  H   UNL     1      20.756   9.347  48.472  0.00  0.00    +0.000 HD
ENDBRANCH  18  20
ENDBRANCH  16  18
ENDBRANCH   1  17
BRANCH  13  23
ATOM     23  N   UNL     1      22.094   0.556  53.582  0.00  0.00    +0.000 N 
ATOM     24  H   UNL     1      22.263   1.445  53.969  0.00  0.00    +0.000 HD
BRANCH  23  25
ATOM     25  CA  UNL     1      23.138  -0.504  53.598  0.00  0.00    +0.000 C 
BRANCH  25  26
ATOM     26  C   UNL     1      24.524   0.019  53.211  0.00  0.00    +0.000 A 
ATOM     27  C   UNL     1      25.590  -0.869  52.979  0.00  0.00    +0.000 A 
ATOM     28  C   UNL     1      26.863  -0.393  52.636  0.00  0.00    +0.000 A 
ATOM     29  C   UNL     1      27.094   0.980  52.515  0.00  0.00    +0.000 A 
ATOM     30  C   UNL     1      26.056   1.870  52.774  0.00  0.00    +0.000 A 
ATOM     31  C   UNL     1      24.787   1.394  53.133  0.00  0.00    +0.000 A 
ENDBRANCH  25  26
BRANCH  25  32
ATOM     32  C   UNL     1      23.159  -1.176  54.999  0.00  0.00    +0.000 C 
BRANCH  32  33
ATOM     33  O   UNL     1      22.030  -2.023  55.236  0.00  0.00    +0.000 OA
ATOM     34  H   UNL     1      21.671  -1.844  56.120  0.00  0.00    +0.000 HD
ENDBRANCH  32  33
ENDBRANCH  25  32
ENDBRANCH  23  25
ENDBRANCH  13  23
TORSDOF 8
ENDMDL
