REMARK  Name = 
REMARK  9 active torsions:
REMARK  status: ('A' for Active; 'I' for Inactive)
REMARK    1  A    between atoms: C_1  and  O_2
REMARK    2  A    between atoms: O_2  and  C_3
REMARK    3  A    between atoms: C_6  and  N_7
REMARK    4  A    between atoms: N_7  and  C_8
REMARK    5  A    between atoms: C_22  and  O_23
REMARK    6  A    between atoms: O_23  and  C_24
REMARK    7  A    between atoms: C_24  and  C_25
REMARK    8  A    between atoms: N_27  and  C_28
REMARK    9  A    between atoms: N_32  and  C_33
REMARK                            x       y       z     vdW  Elec       q    Type
REMARK                         _______ _______ _______ _____ _____    ______ ____
ROOT
ATOM      1  C   UNL     1       1.028   2.018  -2.342  0.00  0.00    +0.000 A 
ATOM      2  C   UNL     1       0.137   3.031  -2.666  0.00  0.00    +0.000 A 
ATOM      3  C   UNL     1       0.508   4.380  -2.556  0.00  0.00    +0.000 A 
ATOM      4  C   UNL     1      -0.340   5.440  -2.907  0.00  0.00    +0.000 A 
ATOM      5  N   UNL     1       0.087   6.706  -2.968  0.00  0.00    +0.000 NA
ATOM      6  C   UNL     1       1.365   6.916  -2.621  0.00  0.00    +0.000 A 
ATOM      7  N   UNL     1       2.240   5.982  -2.206  0.00  0.00    +0.000 NA
ATOM      8  C   UNL     1       1.797   4.723  -2.168  0.00  0.00    +0.000 A 
ATOM      9  C   UNL     1       2.614   3.703  -1.695  0.00  0.00    +0.000 A 
ATOM     10  C   UNL     1       2.193   2.368  -1.650  0.00  0.00    +0.000 A 
ENDROOT
BRANCH   1  12
ATOM     11  C   UNL     1      -0.077   0.560  -3.843  0.00  0.00    +0.000 C 
ATOM     12  O   UNL     1       0.797   0.714  -2.708  0.00  0.00    +0.000 OA
ENDBRANCH   1  12
BRANCH   4  13
ATOM     13  N   UNL     1      -1.695   5.127  -3.171  0.00  0.00    +0.000 N 
ATOM     14  H   UNL     1      -2.055   4.328  -2.721  0.00  0.00    +0.000 HD
BRANCH  13  15
ATOM     15  C   UNL     1      -2.583   5.827  -4.001  0.00  0.00    +0.000 A 
ATOM     16  C   UNL     1      -2.130   6.486  -5.147  0.00  0.00    +0.000 A 
ATOM     17  C   UNL     1      -3.032   7.094  -6.017  0.00  0.00    +0.000 A 
ATOM     18  C   UNL     1      -4.404   7.062  -5.744  0.00  0.00    +0.000 A 
ATOM     19 CL   UNL     1      -5.454   7.852  -6.866  0.00  0.00    +0.000 Cl
ATOM     20  C   UNL     1      -4.880   6.382  -4.621  0.00  0.00    +0.000 A 
ATOM     21 CL   UNL     1      -6.565   6.274  -4.250  0.00  0.00    +0.000 Cl
ATOM     22  C   UNL     1      -3.963   5.761  -3.770  0.00  0.00    +0.000 A 
ATOM     23  F   UNL     1      -4.397   5.078  -2.694  0.00  0.00    +0.000 F 
ENDBRANCH  13  15
ENDBRANCH   4  13
BRANCH  10  24
ATOM     24  O   UNL     1       2.825   1.395  -0.925  0.00  0.00    +0.000 OA
BRANCH  24  25
ATOM     25  C   UNL     1       3.771   1.792   0.079  0.00  0.00    +0.000 C 
BRANCH  25  26
ATOM     26  C   UNL     1       3.237   2.215   1.483  0.00  0.00    +0.000 C 
ATOM     27  C   UNL     1       2.251   1.214   2.123  0.00  0.00    +0.000 C 
ATOM     28  N   UNL     1       0.853   1.591   2.212  0.00  0.00    +0.000 N 
ATOM     29  C   UNL     1      -0.115   0.514   2.143  0.00  0.00    +0.000 C 
ATOM     30  C   UNL     1       0.402   2.838   1.607  0.00  0.00    +0.000 C 
ATOM     31  C   UNL     1       1.444   3.952   1.535  0.00  0.00    +0.000 C 
ATOM     32  O   UNL     1       1.078   5.122   1.388  0.00  0.00    +0.000 OA
ATOM     33  N   UNL     1       2.784   3.608   1.608  0.00  0.00    +0.000 N 
ATOM     34  C   UNL     1       3.770   4.676   1.640  0.00  0.00    +0.000 C 
ATOM     35  H   UNL     1       0.877   1.867   3.194  0.00  0.00    +0.000 HD
ENDBRANCH  25  26
ENDBRANCH  24  25
ENDBRANCH  10  24
TORSDOF 6
