
     RDKit          3D

 34 37  0  0  0  0  0  0  0  0999 V2000
    3.6820    1.7533   -1.9529 F   0  0  0  0  0  0  0  0  0  0  0  0
    4.0075    0.9567   -0.9030 C   0  0  0  0  0  0  0  0  0  0  0  0
    5.3382    0.8934   -0.4679 C   0  0  0  0  0  0  0  0  0  0  0  0
    6.6915    1.9253   -1.3393 Br  0  0  0  0  0  0  0  0  0  0  0  0
    5.6837    0.0731    0.6100 C   0  0  0  0  0  0  0  0  0  0  0  0
    4.7028   -0.6805    1.2599 C   0  0  0  0  0  0  0  0  0  0  0  0
    5.1370   -1.6946    2.6239 Cl  0  0  0  0  0  0  0  0  0  0  0  0
    3.3738   -0.6204    0.8286 C   0  0  0  0  0  0  0  0  0  0  0  0
    3.0164    0.1876   -0.2668 C   0  0  0  0  0  0  0  0  0  0  0  0
    1.6494    0.2751   -0.7077 N   0  0  0  0  0  0  0  0  0  0  0  0
    0.7167   -0.8150   -0.6023 C   0  0  0  0  0  0  0  0  0  0  0  0
    1.1754   -2.0936   -0.6934 N   0  0  0  0  0  0  0  0  0  0  0  0
    0.3364   -3.1589   -0.6499 C   0  0  0  0  0  0  0  0  0  0  0  0
   -1.0002   -2.9688   -0.5241 N   0  0  0  0  0  0  0  0  0  0  0  0
   -1.5235   -1.7197   -0.4299 C   0  0  0  0  0  0  0  0  0  0  0  0
   -2.9077   -1.5554   -0.2985 C   0  0  0  0  0  0  0  0  0  0  0  0
   -3.4496   -0.2734   -0.1907 C   0  0  0  0  0  0  0  0  0  0  0  0
   -2.6101    0.8477   -0.1770 C   0  0  0  0  0  0  0  0  0  0  0  0
   -1.2281    0.6968   -0.3232 C   0  0  0  0  0  0  0  0  0  0  0  0
   -0.6704   -0.5903   -0.4624 C   0  0  0  0  0  0  0  0  0  0  0  0
   -3.1752    2.1167   -0.0124 O   0  0  0  0  0  0  0  0  0  0  0  0
   -4.5325    2.2724    0.4096 C   0  0  0  0  0  0  0  0  0  0  0  0
   -5.4180    1.2059   -0.2475 C   0  0  0  0  0  0  0  0  0  0  0  0
   -4.8324   -0.0888   -0.0895 O   0  0  0  0  0  0  0  0  0  0  0  0
    6.7121    0.0263    0.9454 H   0  0  0  0  0  0  0  0  0  0  0  0
    2.6214   -1.1885    1.3602 H   0  0  0  0  0  0  0  0  0  0  0  0
    1.3585    1.1255   -1.2395 H   0  0  0  0  0  0  0  0  0  0  0  0
    0.7341   -4.1616   -0.7233 H   0  0  0  0  0  0  0  0  0  0  0  0
   -3.5617   -2.4188   -0.2886 H   0  0  0  0  0  0  0  0  0  0  0  0
   -0.6096    1.5831   -0.2976 H   0  0  0  0  0  0  0  0  0  0  0  0
   -4.5827    2.1581    1.5137 H   0  0  0  0  0  0  0  0  0  0  0  0
   -4.8911    3.2880    0.1407 H   0  0  0  0  0  0  0  0  0  0  0  0
   -5.5137    1.4291   -1.3318 H   0  0  0  0  0  0  0  0  0  0  0  0
   -6.4305    1.2140    0.2077 H   0  0  0  0  0  0  0  0  0  0  0  0
  1  2  1  0
  2  3  2  0
  3  4  1  0
  3  5  1  0
  5  6  2  0
  6  7  1  0
  6  8  1  0
  8  9  2  0
  9 10  1  0
 10 11  1  0
 11 12  2  0
 12 13  1  0
 13 14  2  0
 14 15  1  0
 15 16  2  0
 16 17  1  0
 17 18  2  0
 18 19  1  0
 19 20  2  0
 18 21  1  0
 21 22  1  0
 22 23  1  0
 23 24  1  0
  9  2  1  0
 20 11  1  0
 20 15  1  0
 24 17  1  0
  5 25  1  0
  8 26  1  0
 10 27  1  0
 13 28  1  0
 16 29  1  0
 19 30  1  0
 22 31  1  0
 22 32  1  0
 23 33  1  0
 23 34  1  0
M  END
