
     RDKit          3D

 27 29  0  0  0  0  0  0  0  0999 V2000
    6.0025   -0.0574   -0.3087 F   0  0  0  0  0  0  0  0  0  0  0  0
    4.6658   -0.1794   -0.1124 C   0  0  0  0  0  0  0  0  0  0  0  0
    3.7774    0.4425   -0.9943 C   0  0  0  0  0  0  0  0  0  0  0  0
    2.3977    0.3226   -0.8030 C   0  0  0  0  0  0  0  0  0  0  0  0
    1.8953   -0.4154    0.2850 C   0  0  0  0  0  0  0  0  0  0  0  0
    0.5199   -0.5738    0.5088 O   0  0  0  0  0  0  0  0  0  0  0  0
   -0.4678    0.3713    0.1936 C   0  0  0  0  0  0  0  0  0  0  0  0
   -0.1389    1.6769   -0.0110 N   0  0  0  0  0  0  0  0  0  0  0  0
   -1.0827    2.6109   -0.2955 C   0  0  0  0  0  0  0  0  0  0  0  0
   -2.3909    2.2573   -0.3738 N   0  0  0  0  0  0  0  0  0  0  0  0
   -2.7798    0.9721   -0.1695 C   0  0  0  0  0  0  0  0  0  0  0  0
   -4.1338    0.6270   -0.2502 C   0  0  0  0  0  0  0  0  0  0  0  0
   -4.5324   -0.6960   -0.0367 C   0  0  0  0  0  0  0  0  0  0  0  0
   -3.5813   -1.6779    0.2576 C   0  0  0  0  0  0  0  0  0  0  0  0
   -2.2257   -1.3434    0.3400 C   0  0  0  0  0  0  0  0  0  0  0  0
   -1.8157   -0.0160    0.1268 C   0  0  0  0  0  0  0  0  0  0  0  0
    2.7915   -1.0533    1.1518 C   0  0  0  0  0  0  0  0  0  0  0  0
    4.1728   -0.9323    0.9605 C   0  0  0  0  0  0  0  0  0  0  0  0
    5.2782   -1.7289    2.0675 Cl  0  0  0  0  0  0  0  0  0  0  0  0
    4.1575    1.0112   -1.8332 H   0  0  0  0  0  0  0  0  0  0  0  0
    1.7295    0.7802   -1.5197 H   0  0  0  0  0  0  0  0  0  0  0  0
   -0.7916    3.6395   -0.4576 H   0  0  0  0  0  0  0  0  0  0  0  0
   -4.8775    1.3809   -0.4771 H   0  0  0  0  0  0  0  0  0  0  0  0
   -5.5799   -0.9609   -0.0993 H   0  0  0  0  0  0  0  0  0  0  0  0
   -3.8955   -2.7006    0.4218 H   0  0  0  0  0  0  0  0  0  0  0  0
   -1.5061   -2.1199    0.5678 H   0  0  0  0  0  0  0  0  0  0  0  0
    2.4114   -1.6373    1.9807 H   0  0  0  0  0  0  0  0  0  0  0  0
  1  2  1  0
  2  3  2  0
  3  4  1  0
  4  5  2  0
  5  6  1  0
  6  7  1  0
  7  8  2  0
  8  9  1  0
  9 10  2  0
 10 11  1  0
 11 12  2  0
 12 13  1  0
 13 14  2  0
 14 15  1  0
 15 16  2  0
  5 17  1  0
 17 18  2  0
 18 19  1  0
 18  2  1  0
 16  7  1  0
 16 11  1  0
  3 20  1  0
  4 21  1  0
  9 22  1  0
 12 23  1  0
 13 24  1  0
 14 25  1  0
 15 26  1  0
 17 27  1  0
M  END
