REMARK  Name = 
REMARK  4 active torsions:
REMARK  status: ('A' for Active; 'I' for Inactive)
REMARK    1  A    between atoms: C_1  and  C_2
REMARK    2  A    between atoms: C_2  and  S_3
REMARK    3  A    between atoms: S_3  and  N_6
REMARK    4  A    between atoms: C_26  and  N_27
REMARK                            x       y       z     vdW  Elec       q    Type
REMARK                         _______ _______ _______ _____ _____    ______ ____
ROOT
ATOM      1  N   UNL     1       1.607  -0.756  -4.199  0.00  0.00    +0.000 N 
ATOM      2  C   UNL     1       1.782  -0.877  -5.588  0.00  0.00    +0.000 A 
ATOM      3  C   UNL     1       3.082  -1.376  -5.778  0.00  0.00    +0.000 A 
ATOM      4  C   UNL     1       3.669  -0.729  -4.526  0.00  0.00    +0.000 A 
ATOM      5  C   UNL     1       4.888  -0.544  -3.819  0.00  0.00    +0.000 A 
ATOM      6  C   UNL     1       5.288  -1.520  -2.925  0.00  0.00    +0.000 A 
ATOM      7  C   UNL     1       4.504  -2.648  -2.978  0.00  0.00    +0.000 A 
ATOM      8  C   UNL     1       3.110  -2.450  -2.947  0.00  0.00    +0.000 A 
ATOM      9  C   UNL     1       2.734  -1.273  -3.632  0.00  0.00    +0.000 A 
ATOM     10  O   UNL     1       4.920  -3.653  -3.857  0.00  0.00    +0.000 OA
ATOM     11  C   UNL     1       6.206  -3.463  -4.526  0.00  0.00    +0.000 C 
ATOM     12  C   UNL     1       6.414  -2.254  -5.517  0.00  0.00    +0.000 C 
ATOM     13  C   UNL     1       7.552  -1.223  -5.523  0.00  0.00    +0.000 C 
ATOM     14  C   UNL     1       8.820  -1.694  -4.867  0.00  0.00    +0.000 C 
ATOM     15  O   UNL     1       9.726  -2.445  -5.690  0.00  0.00    +0.000 OA
ATOM     16  C   UNL     1       9.207  -3.634  -6.137  0.00  0.00    +0.000 A 
ATOM     17  C   UNL     1       8.429  -3.571  -7.323  0.00  0.00    +0.000 A 
ATOM     18  C   UNL     1       7.514  -4.588  -7.642  0.00  0.00    +0.000 A 
ATOM     19  C   UNL     1       7.721  -5.817  -7.020  0.00  0.00    +0.000 A 
ATOM     20  C   UNL     1       8.690  -5.946  -5.990  0.00  0.00    +0.000 A 
ATOM     21  C   UNL     1       9.400  -4.841  -5.453  0.00  0.00    +0.000 A 
ATOM     22  N   UNL     1       6.289  -4.247  -8.349  0.00  0.00    +0.000 N 
ATOM     23  C   UNL     1       5.014  -4.108  -7.686  0.00  0.00    +0.000 A 
ATOM     24  N   UNL     1       4.359  -5.219  -7.372  0.00  0.00    +0.000 NA
ATOM     25  C   UNL     1       3.139  -5.051  -6.822  0.00  0.00    +0.000 A 
ATOM     26  C   UNL     1       2.564  -3.837  -6.485  0.00  0.00    +0.000 A 
ATOM     27 CL   UNL     1       0.888  -3.840  -6.102  0.00  0.00    +0.000 Cl
ATOM     28  C   UNL     1       3.371  -2.696  -6.604  0.00  0.00    +0.000 A 
ATOM     29  N   UNL     1       4.525  -2.842  -7.354  0.00  0.00    +0.000 NA
ATOM     30  H   UNL     1       6.331  -4.105  -9.322  0.00  0.00    +0.000 HD
ENDROOT
BRANCH  21  31
ATOM     31  N   UNL     1      10.168  -5.040  -4.312  0.00  0.00    +0.000 N 
ATOM     32  C   UNL     1      10.308  -4.100  -3.185  0.00  0.00    +0.000 C 
ATOM     33  C   UNL     1      11.632  -3.329  -3.224  0.00  0.00    +0.000 C 
ATOM     34  O   UNL     1      12.740  -4.242  -3.247  0.00  0.00    +0.000 OA
ATOM     35  C   UNL     1      12.652  -5.079  -4.415  0.00  0.00    +0.000 C 
ATOM     36  C   UNL     1      11.353  -5.911  -4.441  0.00  0.00    +0.000 C 
ENDBRANCH  21  31
BRANCH   1  37
ATOM     37  S   UNL     1       0.888   0.699  -3.524  0.00  0.00    +0.000 S 
ATOM     38  O   UNL     1      -0.513   0.501  -3.792  0.00  0.00    +0.000 OA
ATOM     39  O   UNL     1       1.640   1.773  -4.141  0.00  0.00    +0.000 OA
BRANCH  37  41
ATOM     40  C   UNL     1       0.207   1.811  -1.085  0.00  0.00    +0.000 C 
ATOM     41  C   UNL     1       1.137   0.791  -1.751  0.00  0.00    +0.000 C 
ENDBRANCH  37  41
ENDBRANCH   1  37
TORSDOF 3
