
     RDKit          3D

 52 55  0  0  0  0  0  0  0  0999 V2000
    0.9422    0.9492   -0.7630 O   0  0  0  0  0  0  0  0  0  0  0  0
    1.6737   -0.0481   -1.0281 C   0  0  0  0  0  0  0  0  0  0  0  0
    3.0184   -0.1655   -0.4324 C   0  0  0  0  0  0  0  0  0  0  0  0
    3.5199    0.7615    0.3904 C   0  0  0  0  0  0  0  0  0  0  0  0
    4.8684    0.5781    1.0186 C   0  0  0  0  0  0  0  0  0  0  0  0
    5.1665    1.7037    1.9084 N   0  0  0  0  0  0  0  0  0  0  0  0
    6.3974    1.4258    2.6468 C   0  0  0  0  0  0  0  0  0  0  0  0
    6.1618    0.7699    3.9961 C   0  0  0  0  0  0  0  0  0  0  0  0
    6.5197    2.2457    3.9190 C   0  0  0  0  0  0  0  0  0  0  0  0
    1.1977   -1.0753   -1.9102 N   0  0  0  0  0  0  0  0  0  0  0  0
   -0.1447   -1.1055   -2.4146 C   0  0  0  0  0  0  0  0  0  0  0  0
   -1.2172   -1.0075   -1.5103 C   0  0  0  0  0  0  0  0  0  0  0  0
   -2.5525   -1.1235   -1.9486 C   0  0  0  0  0  0  0  0  0  0  0  0
   -3.6806   -0.9943   -1.0929 C   0  0  0  0  0  0  0  0  0  0  0  0
   -3.5503   -0.7645    0.3278 N   0  0  0  0  0  0  0  0  0  0  0  0
   -4.6039   -0.2157    1.1385 C   0  0  0  0  0  0  0  0  0  0  0  0
   -5.8996   -0.7643    1.1348 C   0  0  0  0  0  0  0  0  0  0  0  0
   -6.9038   -0.2085    1.9364 C   0  0  0  0  0  0  0  0  0  0  0  0
   -6.6185    0.8842    2.7616 C   0  0  0  0  0  0  0  0  0  0  0  0
   -7.5998    1.4205    3.5307 F   0  0  0  0  0  0  0  0  0  0  0  0
   -5.3202    1.4140    2.7978 C   0  0  0  0  0  0  0  0  0  0  0  0
   -4.9428    2.7737    3.8445 Cl  0  0  0  0  0  0  0  0  0  0  0  0
   -4.3166    0.8592    1.9947 C   0  0  0  0  0  0  0  0  0  0  0  0
   -4.9262   -1.0695   -1.6384 N   0  0  0  0  0  0  0  0  0  0  0  0
   -5.1244   -1.2953   -2.9601 C   0  0  0  0  0  0  0  0  0  0  0  0
   -4.0640   -1.4428   -3.7891 N   0  0  0  0  0  0  0  0  0  0  0  0
   -2.7925   -1.3587   -3.3217 C   0  0  0  0  0  0  0  0  0  0  0  0
   -1.7263   -1.4813   -4.2158 C   0  0  0  0  0  0  0  0  0  0  0  0
   -0.4048   -1.3281   -3.7874 C   0  0  0  0  0  0  0  0  0  0  0  0
    0.5962   -1.3887   -4.7717 O   0  0  0  0  0  0  0  0  0  0  0  0
    1.8003   -0.6245   -4.7748 C   0  0  0  0  0  0  0  0  0  0  0  0
    2.0611   -0.2091   -6.0661 F   0  0  0  0  0  0  0  0  0  0  0  0
    2.8554   -1.4076   -4.3469 F   0  0  0  0  0  0  0  0  0  0  0  0
    3.6052   -1.0487   -0.6567 H   0  0  0  0  0  0  0  0  0  0  0  0
    2.9495    1.6535    0.6196 H   0  0  0  0  0  0  0  0  0  0  0  0
    4.8567   -0.3719    1.5981 H   0  0  0  0  0  0  0  0  0  0  0  0
    5.6407    0.5028    0.2192 H   0  0  0  0  0  0  0  0  0  0  0  0
    5.3509    2.5453    1.3135 H   0  0  0  0  0  0  0  0  0  0  0  0
    7.3402    1.2145    2.0966 H   0  0  0  0  0  0  0  0  0  0  0  0
    5.0977    0.5714    4.2491 H   0  0  0  0  0  0  0  0  0  0  0  0
    6.9932    0.1157    4.3331 H   0  0  0  0  0  0  0  0  0  0  0  0
    5.6692    2.9288    4.1358 H   0  0  0  0  0  0  0  0  0  0  0  0
    7.5628    2.4709    4.2239 H   0  0  0  0  0  0  0  0  0  0  0  0
    1.8445   -1.8486   -2.1824 H   0  0  0  0  0  0  0  0  0  0  0  0
   -0.9729   -0.8511   -0.4726 H   0  0  0  0  0  0  0  0  0  0  0  0
   -2.6267   -0.8652    0.8015 H   0  0  0  0  0  0  0  0  0  0  0  0
   -6.1312   -1.6336    0.5333 H   0  0  0  0  0  0  0  0  0  0  0  0
   -7.9033   -0.6302    1.9219 H   0  0  0  0  0  0  0  0  0  0  0  0
   -3.3149    1.2715    2.0240 H   0  0  0  0  0  0  0  0  0  0  0  0
   -6.1306   -1.3571   -3.3530 H   0  0  0  0  0  0  0  0  0  0  0  0
   -1.9264   -1.6531   -5.2664 H   0  0  0  0  0  0  0  0  0  0  0  0
    1.7051    0.2779   -4.1335 H   0  0  0  0  0  0  0  0  0  0  0  0
  1  2  2  0
  2  3  1  0
  3  4  2  0
  4  5  1  0
  5  6  1  0
  6  7  1  0
  7  8  1  0
  8  9  1  0
  2 10  1  0
 10 11  1  0
 11 12  2  0
 12 13  1  0
 13 14  2  0
 14 15  1  0
 15 16  1  0
 16 17  2  0
 17 18  1  0
 18 19  2  0
 19 20  1  0
 19 21  1  0
 21 22  1  0
 21 23  2  0
 14 24  1  0
 24 25  2  0
 25 26  1  0
 26 27  2  0
 27 28  1  0
 28 29  2  0
 29 30  1  0
 30 31  1  0
 31 32  1  0
 31 33  1  0
  9  7  1  0
 29 11  1  0
 27 13  1  0
 23 16  1  0
  3 34  1  0
  4 35  1  0
  5 36  1  0
  5 37  1  0
  6 38  1  0
  7 39  1  0
  8 40  1  0
  8 41  1  0
  9 42  1  0
  9 43  1  0
 10 44  1  0
 12 45  1  0
 15 46  1  0
 17 47  1  0
 18 48  1  0
 23 49  1  0
 25 50  1  0
 28 51  1  0
 31 52  1  0
M  END
