MODEL 1
REMARK VINA RESULT:    -9.874      0.000      0.000
REMARK INTER + INTRA:         -15.466
REMARK INTER:                 -13.914
REMARK INTRA:                  -1.552
REMARK UNBOUND:                -1.552
REMARK  Name = 
REMARK  7 active torsions:
REMARK  status: ('A' for Active; 'I' for Inactive)
REMARK    1  A    between atoms: C_2  and  C_3
REMARK    2  A    between atoms: C_8  and  O_9
REMARK    3  A    between atoms: O_9  and  C_10
REMARK    4  A    between atoms: C_13  and  N_14
REMARK    5  A    between atoms: N_14  and  C_15
REMARK    6  A    between atoms: C_28  and  O_29
REMARK    7  A    between atoms: O_29  and  C_30
REMARK                            x       y       z     vdW  Elec       q    Type
REMARK                         _______ _______ _______ _____ _____    ______ ____
ROOT
ATOM      1  C   UNL     1      20.895   0.603  51.318  0.00  0.00    +0.000 A 
ATOM      2  C   UNL     1      22.193   0.357  51.790  0.00  0.00    +0.000 A 
ATOM      3  C   UNL     1      22.424  -0.220  53.057  0.00  0.00    +0.000 A 
ATOM      4  C   UNL     1      23.684  -0.616  53.546  0.00  0.00    +0.000 A 
ATOM      5  N   UNL     1      23.835  -1.160  54.764  0.00  0.00    +0.000 NA
ATOM      6  C   UNL     1      22.725  -1.336  55.483  0.00  0.00    +0.000 A 
ATOM      7  N   UNL     1      21.481  -1.036  55.101  0.00  0.00    +0.000 NA
ATOM      8  C   UNL     1      21.335  -0.493  53.888  0.00  0.00    +0.000 A 
ATOM      9  C   UNL     1      20.050  -0.209  53.431  0.00  0.00    +0.000 A 
ATOM     10  C   UNL     1      19.802   0.345  52.166  0.00  0.00    +0.000 A 
ENDROOT
BRANCH   4  11
ATOM     11  N   UNL     1      24.846  -0.476  52.734  0.00  0.00    +0.000 N 
ATOM     12  H   UNL     1      24.875  -0.970  51.883  0.00  0.00    +0.000 HD
BRANCH  11  13
ATOM     13  C   UNL     1      25.967   0.327  53.075  0.00  0.00    +0.000 A 
ATOM     14  C   UNL     1      25.830   1.716  53.221  0.00  0.00    +0.000 A 
ATOM     15  C   UNL     1      26.946   2.512  53.513  0.00  0.00    +0.000 A 
ATOM     16  C   UNL     1      28.201   1.927  53.635  0.00  0.00    +0.000 A 
ATOM     17  F   UNL     1      29.258   2.708  53.910  0.00  0.00    +0.000 F 
ATOM     18  C   UNL     1      28.360   0.556  53.461  0.00  0.00    +0.000 A 
ATOM     19 CL   UNL     1      29.912  -0.178  53.585  0.00  0.00    +0.000 Cl
ATOM     20  C   UNL     1      27.248  -0.233  53.172  0.00  0.00    +0.000 A 
ENDBRANCH  11  13
ENDBRANCH   4  11
BRANCH   1  21
ATOM     21  O   UNL     1      20.654   1.087  50.046  0.00  0.00    +0.000 OA
BRANCH  21  27
ATOM     22  C   UNL     1      24.559   4.500  50.588  0.00  0.00    +0.000 C 
ATOM     23  O   UNL     1      24.647   4.708  51.796  0.00  0.00    +0.000 OA
ATOM     24  N   UNL     1      23.336   4.329  49.927  0.00  0.00    +0.000 N 
ATOM     25  C   UNL     1      22.117   4.508  50.701  0.00  0.00    +0.000 C 
ATOM     26  C   UNL     1      21.524   3.154  51.036  0.00  0.00    +0.000 C 
ATOM     27  C   UNL     1      21.217   2.382  49.744  0.00  0.00    +0.000 C 
ATOM     28  C   UNL     1      22.495   2.239  48.897  0.00  0.00    +0.000 C 
ATOM     29  C   UNL     1      23.156   3.608  48.663  0.00  0.00    +0.000 C 
BRANCH  22  31
ATOM     30  C   UNL     1      26.570   3.402  49.730  0.00  0.00    +0.000 C 
ATOM     31  C   UNL     1      25.759   4.467  49.726  0.00  0.00    +0.000 C 
ENDBRANCH  22  31
ENDBRANCH  21  27
ENDBRANCH   1  21
BRANCH  10  32
ATOM     32  O   UNL     1      18.544   0.604  51.679  0.00  0.00    +0.000 OA
BRANCH  32  33
ATOM     33  C   UNL     1      17.695  -0.483  51.304  0.00  0.00    +0.000 C 
ATOM     34  C   UNL     1      16.513  -0.679  52.231  0.00  0.00    +0.000 C 
ATOM     35  C   UNL     1      15.478  -1.332  51.339  0.00  0.00    +0.000 C 
ATOM     36  O   UNL     1      15.744  -0.905  49.997  0.00  0.00    +0.000 OA
ATOM     37  C   UNL     1      16.970  -0.156  50.002  0.00  0.00    +0.000 C 
ENDBRANCH  32  33
ENDBRANCH  10  32
TORSDOF 7
ENDMDL
MODEL 2
REMARK VINA RESULT:    -9.387      1.820      2.660
REMARK INTER + INTRA:         -14.781
REMARK INTER:                 -13.597
REMARK INTRA:                  -1.184
REMARK UNBOUND:                -1.552
REMARK  Name = 
REMARK  7 active torsions:
REMARK  status: ('A' for Active; 'I' for Inactive)
REMARK    1  A    between atoms: C_2  and  C_3
REMARK    2  A    between atoms: C_8  and  O_9
REMARK    3  A    between atoms: O_9  and  C_10
REMARK    4  A    between atoms: C_13  and  N_14
REMARK    5  A    between atoms: N_14  and  C_15
REMARK    6  A    between atoms: C_28  and  O_29
REMARK    7  A    between atoms: O_29  and  C_30
REMARK                            x       y       z     vdW  Elec       q    Type
REMARK                         _______ _______ _______ _____ _____    ______ ____
ROOT
ATOM      1  C   UNL     1      20.688   0.980  51.641  0.00  0.00    +0.000 A 
ATOM      2  C   UNL     1      22.030   0.862  52.034  0.00  0.00    +0.000 A 
ATOM      3  C   UNL     1      22.407   0.098  53.159  0.00  0.00    +0.000 A 
ATOM      4  C   UNL     1      23.735  -0.174  53.540  0.00  0.00    +0.000 A 
ATOM      5  N   UNL     1      24.027  -0.910  54.625  0.00  0.00    +0.000 NA
ATOM      6  C   UNL     1      22.993  -1.399  55.312  0.00  0.00    +0.000 A 
ATOM      7  N   UNL     1      21.701  -1.237  55.017  0.00  0.00    +0.000 NA
ATOM      8  C   UNL     1      21.415  -0.503  53.936  0.00  0.00    +0.000 A 
ATOM      9  C   UNL     1      20.081  -0.349  53.565  0.00  0.00    +0.000 A 
ATOM     10  C   UNL     1      19.690   0.390  52.438  0.00  0.00    +0.000 A 
ENDROOT
BRANCH   4  11
ATOM     11  N   UNL     1      24.821   0.306  52.754  0.00  0.00    +0.000 N 
ATOM     12  H   UNL     1      24.613   0.889  51.989  0.00  0.00    +0.000 HD
BRANCH  11  13
ATOM     13  C   UNL     1      26.185  -0.005  53.001  0.00  0.00    +0.000 A 
ATOM     14  C   UNL     1      26.683  -1.290  52.737  0.00  0.00    +0.000 A 
ATOM     15  C   UNL     1      28.016  -1.607  53.025  0.00  0.00    +0.000 A 
ATOM     16  C   UNL     1      28.848  -0.652  53.597  0.00  0.00    +0.000 A 
ATOM     17  F   UNL     1      30.122  -0.978  53.869  0.00  0.00    +0.000 F 
ATOM     18  C   UNL     1      28.363   0.617  53.896  0.00  0.00    +0.000 A 
ATOM     19 CL   UNL     1      29.375   1.802  54.628  0.00  0.00    +0.000 Cl
ATOM     20  C   UNL     1      27.036   0.930  53.608  0.00  0.00    +0.000 A 
ENDBRANCH  11  13
ENDBRANCH   4  11
BRANCH   1  21
ATOM     21  O   UNL     1      20.314   1.654  50.493  0.00  0.00    +0.000 OA
BRANCH  21  27
ATOM     22  C   UNL     1      21.876   4.276  46.265  0.00  0.00    +0.000 C 
ATOM     23  O   UNL     1      21.568   3.569  45.308  0.00  0.00    +0.000 OA
ATOM     24  N   UNL     1      22.357   3.761  47.475  0.00  0.00    +0.000 N 
ATOM     25  C   UNL     1      22.592   2.327  47.555  0.00  0.00    +0.000 C 
ATOM     26  C   UNL     1      21.468   1.670  48.329  0.00  0.00    +0.000 C 
ATOM     27  C   UNL     1      21.384   2.267  49.742  0.00  0.00    +0.000 C 
ATOM     28  C   UNL     1      21.190   3.793  49.660  0.00  0.00    +0.000 C 
ATOM     29  C   UNL     1      22.269   4.438  48.773  0.00  0.00    +0.000 C 
BRANCH  22  31
ATOM     30  C   UNL     1      22.414   6.405  45.184  0.00  0.00    +0.000 C 
ATOM     31  C   UNL     1      21.808   5.751  46.183  0.00  0.00    +0.000 C 
ENDBRANCH  22  31
ENDBRANCH  21  27
ENDBRANCH   1  21
BRANCH  10  32
ATOM     32  O   UNL     1      18.386   0.530  52.032  0.00  0.00    +0.000 OA
BRANCH  32  33
ATOM     33  C   UNL     1      17.624  -0.632  51.694  0.00  0.00    +0.000 C 
ATOM     34  C   UNL     1      16.497  -0.922  52.664  0.00  0.00    +0.000 C 
ATOM     35  C   UNL     1      15.493  -1.672  51.814  0.00  0.00    +0.000 C 
ATOM     36  O   UNL     1      15.673  -1.237  50.460  0.00  0.00    +0.000 OA
ATOM     37  C   UNL     1      16.827  -0.382  50.416  0.00  0.00    +0.000 C 
ENDBRANCH  32  33
ENDBRANCH  10  32
TORSDOF 7
ENDMDL
MODEL 3
REMARK VINA RESULT:    -9.354      4.112      7.179
REMARK INTER + INTRA:         -14.734
REMARK INTER:                 -13.177
REMARK INTRA:                  -1.557
REMARK UNBOUND:                -1.552
REMARK  Name = 
REMARK  7 active torsions:
REMARK  status: ('A' for Active; 'I' for Inactive)
REMARK    1  A    between atoms: C_2  and  C_3
REMARK    2  A    between atoms: C_8  and  O_9
REMARK    3  A    between atoms: O_9  and  C_10
REMARK    4  A    between atoms: C_13  and  N_14
REMARK    5  A    between atoms: N_14  and  C_15
REMARK    6  A    between atoms: C_28  and  O_29
REMARK    7  A    between atoms: O_29  and  C_30
REMARK                            x       y       z     vdW  Elec       q    Type
REMARK                         _______ _______ _______ _____ _____    ______ ____
ROOT
ATOM      1  C   UNL     1      24.290   1.900  52.994  0.00  0.00    +0.000 A 
ATOM      2  C   UNL     1      22.894   1.773  52.931  0.00  0.00    +0.000 A 
ATOM      3  C   UNL     1      22.236   0.604  53.369  0.00  0.00    +0.000 A 
ATOM      4  C   UNL     1      20.840   0.449  53.458  0.00  0.00    +0.000 A 
ATOM      5  N   UNL     1      20.276  -0.693  53.884  0.00  0.00    +0.000 NA
ATOM      6  C   UNL     1      21.107  -1.671  54.248  0.00  0.00    +0.000 A 
ATOM      7  N   UNL     1      22.442  -1.617  54.242  0.00  0.00    +0.000 NA
ATOM      8  C   UNL     1      22.998  -0.477  53.816  0.00  0.00    +0.000 A 
ATOM      9  C   UNL     1      24.387  -0.361  53.839  0.00  0.00    +0.000 A 
ATOM     10  C   UNL     1      25.055   0.802  53.428  0.00  0.00    +0.000 A 
ENDROOT
BRANCH   4  11
ATOM     11  N   UNL     1      19.974   1.530  53.123  0.00  0.00    +0.000 N 
ATOM     12  H   UNL     1      19.496   1.980  53.857  0.00  0.00    +0.000 HD
BRANCH  11  13
ATOM     13  C   UNL     1      19.754   1.997  51.800  0.00  0.00    +0.000 A 
ATOM     14  C   UNL     1      19.563   1.091  50.746  0.00  0.00    +0.000 A 
ATOM     15  C   UNL     1      19.392   1.553  49.435  0.00  0.00    +0.000 A 
ATOM     16  C   UNL     1      19.434   2.917  49.171  0.00  0.00    +0.000 A 
ATOM     17  F   UNL     1      19.272   3.339  47.906  0.00  0.00    +0.000 F 
ATOM     18  C   UNL     1      19.655   3.828  50.198  0.00  0.00    +0.000 A 
ATOM     19 CL   UNL     1      19.734   5.518  49.881  0.00  0.00    +0.000 Cl
ATOM     20  C   UNL     1      19.824   3.365  51.502  0.00  0.00    +0.000 A 
ENDBRANCH  11  13
ENDBRANCH   4  11
BRANCH   1  21
ATOM     21  O   UNL     1      24.938   3.072  52.649  0.00  0.00    +0.000 OA
BRANCH  21  27
ATOM     22  C   UNL     1      27.019   5.915  48.805  0.00  0.00    +0.000 C 
ATOM     23  O   UNL     1      26.630   7.064  48.999  0.00  0.00    +0.000 OA
ATOM     24  N   UNL     1      26.219   4.787  49.025  0.00  0.00    +0.000 N 
ATOM     25  C   UNL     1      24.830   5.005  49.405  0.00  0.00    +0.000 C 
ATOM     26  C   UNL     1      24.667   4.759  50.891  0.00  0.00    +0.000 C 
ATOM     27  C   UNL     1      25.085   3.321  51.235  0.00  0.00    +0.000 C 
ATOM     28  C   UNL     1      26.536   3.071  50.783  0.00  0.00    +0.000 C 
ATOM     29  C   UNL     1      26.721   3.438  49.300  0.00  0.00    +0.000 C 
BRANCH  22  31
ATOM     30  C   UNL     1      29.157   6.648  47.868  0.00  0.00    +0.000 C 
ATOM     31  C   UNL     1      28.368   5.642  48.266  0.00  0.00    +0.000 C 
ENDBRANCH  22  31
ENDBRANCH  21  27
ENDBRANCH   1  21
BRANCH  10  32
ATOM     32  O   UNL     1      26.419   0.954  53.470  0.00  0.00    +0.000 OA
BRANCH  32  33
ATOM     33  C   UNL     1      27.238  -0.140  53.889  0.00  0.00    +0.000 C 
ATOM     34  C   UNL     1      27.741  -0.996  52.744  0.00  0.00    +0.000 C 
ATOM     35  C   UNL     1      29.026  -1.583  53.289  0.00  0.00    +0.000 C 
ATOM     36  O   UNL     1      29.538  -0.659  54.258  0.00  0.00    +0.000 OA
ATOM     37  C   UNL     1      28.562   0.379  54.445  0.00  0.00    +0.000 C 
ENDBRANCH  32  33
ENDBRANCH  10  32
TORSDOF 7
ENDMDL
MODEL 4
REMARK VINA RESULT:    -9.311      3.014      5.960
REMARK INTER + INTRA:         -14.674
REMARK INTER:                 -13.468
REMARK INTRA:                  -1.205
REMARK UNBOUND:                -1.552
REMARK  Name = 
REMARK  7 active torsions:
REMARK  status: ('A' for Active; 'I' for Inactive)
REMARK    1  A    between atoms: C_2  and  C_3
REMARK    2  A    between atoms: C_8  and  O_9
REMARK    3  A    between atoms: O_9  and  C_10
REMARK    4  A    between atoms: C_13  and  N_14
REMARK    5  A    between atoms: N_14  and  C_15
REMARK    6  A    between atoms: C_28  and  O_29
REMARK    7  A    between atoms: O_29  and  C_30
REMARK                            x       y       z     vdW  Elec       q    Type
REMARK                         _______ _______ _______ _____ _____    ______ ____
ROOT
ATOM      1  C   UNL     1      22.334   2.289  52.118  0.00  0.00    +0.000 A 
ATOM      2  C   UNL     1      22.675   3.623  51.847  0.00  0.00    +0.000 A 
ATOM      3  C   UNL     1      21.812   4.476  51.128  0.00  0.00    +0.000 A 
ATOM      4  C   UNL     1      22.022   5.854  50.927  0.00  0.00    +0.000 A 
ATOM      5  N   UNL     1      21.159   6.611  50.230  0.00  0.00    +0.000 NA
ATOM      6  C   UNL     1      20.072   5.999  49.758  0.00  0.00    +0.000 A 
ATOM      7  N   UNL     1      19.754   4.712  49.924  0.00  0.00    +0.000 NA
ATOM      8  C   UNL     1      20.617   3.962  50.618  0.00  0.00    +0.000 A 
ATOM      9  C   UNL     1      20.302   2.625  50.855  0.00  0.00    +0.000 A 
ATOM     10  C   UNL     1      21.140   1.770  51.586  0.00  0.00    +0.000 A 
ENDROOT
BRANCH   4  11
ATOM     11  N   UNL     1      23.158   6.498  51.495  0.00  0.00    +0.000 N 
ATOM     12  H   UNL     1      23.125   6.729  52.451  0.00  0.00    +0.000 HD
BRANCH  11  13
ATOM     13  C   UNL     1      24.334   6.830  50.771  0.00  0.00    +0.000 A 
ATOM     14  C   UNL     1      24.666   8.171  50.527  0.00  0.00    +0.000 A 
ATOM     15  C   UNL     1      25.802   8.494  49.773  0.00  0.00    +0.000 A 
ATOM     16  C   UNL     1      26.592   7.482  49.242  0.00  0.00    +0.000 A 
ATOM     17  F   UNL     1      27.673   7.814  48.518  0.00  0.00    +0.000 F 
ATOM     18  C   UNL     1      26.259   6.147  49.446  0.00  0.00    +0.000 A 
ATOM     19 CL   UNL     1      27.215   4.883  48.773  0.00  0.00    +0.000 Cl
ATOM     20  C   UNL     1      25.129   5.828  50.198  0.00  0.00    +0.000 A 
ENDBRANCH  11  13
ENDBRANCH   4  11
BRANCH   1  21
ATOM     21  O   UNL     1      23.132   1.469  52.895  0.00  0.00    +0.000 OA
BRANCH  21  27
ATOM     22  C   UNL     1      28.252   1.150  53.830  0.00  0.00    +0.000 C 
ATOM     23  O   UNL     1      28.575   2.253  54.266  0.00  0.00    +0.000 OA
ATOM     24  N   UNL     1      27.311   0.976  52.807  0.00  0.00    +0.000 N 
ATOM     25  C   UNL     1      26.773   2.170  52.171  0.00  0.00    +0.000 C 
ATOM     26  C   UNL     1      25.375   2.437  52.693  0.00  0.00    +0.000 C 
ATOM     27  C   UNL     1      24.467   1.233  52.401  0.00  0.00    +0.000 C 
ATOM     28  C   UNL     1      25.064  -0.042  53.026  0.00  0.00    +0.000 C 
ATOM     29  C   UNL     1      26.524  -0.240  52.584  0.00  0.00    +0.000 C 
BRANCH  22  31
ATOM     30  C   UNL     1      29.901  -0.649  53.661  0.00  0.00    +0.000 C 
ATOM     31  C   UNL     1      28.885  -0.088  54.329  0.00  0.00    +0.000 C 
ENDBRANCH  22  31
ENDBRANCH  21  27
ENDBRANCH   1  21
BRANCH  10  32
ATOM     32  O   UNL     1      20.838   0.458  51.862  0.00  0.00    +0.000 OA
BRANCH  32  33
ATOM     33  C   UNL     1      19.734   0.154  52.718  0.00  0.00    +0.000 C 
ATOM     34  C   UNL     1      18.518  -0.365  51.979  0.00  0.00    +0.000 C 
ATOM     35  C   UNL     1      17.816  -1.213  53.020  0.00  0.00    +0.000 C 
ATOM     36  O   UNL     1      18.819  -1.689  53.926  0.00  0.00    +0.000 OA
ATOM     37  C   UNL     1      20.063  -1.057  53.587  0.00  0.00    +0.000 C 
ENDBRANCH  32  33
ENDBRANCH  10  32
TORSDOF 7
ENDMDL
MODEL 5
REMARK VINA RESULT:    -9.225      3.887      8.430
REMARK INTER + INTRA:         -14.552
REMARK INTER:                 -12.914
REMARK INTRA:                  -1.638
REMARK UNBOUND:                -1.552
REMARK  Name = 
REMARK  7 active torsions:
REMARK  status: ('A' for Active; 'I' for Inactive)
REMARK    1  A    between atoms: C_2  and  C_3
REMARK    2  A    between atoms: C_8  and  O_9
REMARK    3  A    between atoms: O_9  and  C_10
REMARK    4  A    between atoms: C_13  and  N_14
REMARK    5  A    between atoms: N_14  and  C_15
REMARK    6  A    between atoms: C_28  and  O_29
REMARK    7  A    between atoms: O_29  and  C_30
REMARK                            x       y       z     vdW  Elec       q    Type
REMARK                         _______ _______ _______ _____ _____    ______ ____
ROOT
ATOM      1  C   UNL     1      24.274   3.405  49.989  0.00  0.00    +0.000 A 
ATOM      2  C   UNL     1      23.019   2.790  49.857  0.00  0.00    +0.000 A 
ATOM      3  C   UNL     1      21.870   3.524  49.495  0.00  0.00    +0.000 A 
ATOM      4  C   UNL     1      20.608   2.962  49.218  0.00  0.00    +0.000 A 
ATOM      5  N   UNL     1      19.552   3.719  48.878  0.00  0.00    +0.000 NA
ATOM      6  C   UNL     1      19.762   5.033  48.786  0.00  0.00    +0.000 A 
ATOM      7  N   UNL     1      20.922   5.664  48.987  0.00  0.00    +0.000 NA
ATOM      8  C   UNL     1      21.970   4.906  49.326  0.00  0.00    +0.000 A 
ATOM      9  C   UNL     1      23.211   5.519  49.498  0.00  0.00    +0.000 A 
ATOM     10  C   UNL     1      24.367   4.801  49.837  0.00  0.00    +0.000 A 
ENDROOT
BRANCH   4  11
ATOM     11  N   UNL     1      20.425   1.551  49.260  0.00  0.00    +0.000 N 
ATOM     12  H   UNL     1      20.722   1.025  48.483  0.00  0.00    +0.000 HD
BRANCH  11  13
ATOM     13  C   UNL     1      19.839   0.853  50.350  0.00  0.00    +0.000 A 
ATOM     14  C   UNL     1      18.479   0.508  50.326  0.00  0.00    +0.000 A 
ATOM     15  C   UNL     1      17.892  -0.139  51.421  0.00  0.00    +0.000 A 
ATOM     16  C   UNL     1      18.655  -0.421  52.549  0.00  0.00    +0.000 A 
ATOM     17  F   UNL     1      18.072  -1.037  53.590  0.00  0.00    +0.000 F 
ATOM     18  C   UNL     1      19.995  -0.057  52.603  0.00  0.00    +0.000 A 
ATOM     19 CL   UNL     1      20.945  -0.377  54.003  0.00  0.00    +0.000 Cl
ATOM     20  C   UNL     1      20.577   0.586  51.511  0.00  0.00    +0.000 A 
ENDBRANCH  11  13
ENDBRANCH   4  11
BRANCH   1  21
ATOM     21  O   UNL     1      25.422   2.683  50.258  0.00  0.00    +0.000 OA
BRANCH  21  27
ATOM     22  C   UNL     1      27.551  -0.371  53.908  0.00  0.00    +0.000 C 
ATOM     23  O   UNL     1      26.998  -1.462  53.787  0.00  0.00    +0.000 OA
ATOM     24  N   UNL     1      26.881   0.849  53.754  0.00  0.00    +0.000 N 
ATOM     25  C   UNL     1      25.442   0.809  53.538  0.00  0.00    +0.000 C 
ATOM     26  C   UNL     1      25.141   1.061  52.075  0.00  0.00    +0.000 C 
ATOM     27  C   UNL     1      25.697   2.429  51.652  0.00  0.00    +0.000 C 
ATOM     28  C   UNL     1      27.211   2.493  51.930  0.00  0.00    +0.000 C 
ATOM     29  C   UNL     1      27.518   2.119  53.391  0.00  0.00    +0.000 C 
BRANCH  22  31
ATOM     30  C   UNL     1      29.921  -0.852  53.533  0.00  0.00    +0.000 C 
ATOM     31  C   UNL     1      28.977  -0.271  54.285  0.00  0.00    +0.000 C 
ENDBRANCH  22  31
ENDBRANCH  21  27
ENDBRANCH   1  21
BRANCH  10  32
ATOM     32  O   UNL     1      25.608   5.374  49.980  0.00  0.00    +0.000 OA
BRANCH  32  33
ATOM     33  C   UNL     1      26.352   5.743  48.817  0.00  0.00    +0.000 C 
ATOM     34  C   UNL     1      26.933   7.140  48.886  0.00  0.00    +0.000 C 
ATOM     35  C   UNL     1      28.145   7.056  47.981  0.00  0.00    +0.000 C 
ATOM     36  O   UNL     1      28.592   5.695  47.995  0.00  0.00    +0.000 OA
ATOM     37  C   UNL     1      27.633   4.918  48.731  0.00  0.00    +0.000 C 
ENDBRANCH  32  33
ENDBRANCH  10  32
TORSDOF 7
ENDMDL
MODEL 6
REMARK VINA RESULT:    -8.906      4.200      7.431
REMARK INTER + INTRA:         -14.102
REMARK INTER:                 -12.619
REMARK INTRA:                  -1.483
REMARK UNBOUND:                -1.552
REMARK  Name = 
REMARK  7 active torsions:
REMARK  status: ('A' for Active; 'I' for Inactive)
REMARK    1  A    between atoms: C_2  and  C_3
REMARK    2  A    between atoms: C_8  and  O_9
REMARK    3  A    between atoms: O_9  and  C_10
REMARK    4  A    between atoms: C_13  and  N_14
REMARK    5  A    between atoms: N_14  and  C_15
REMARK    6  A    between atoms: C_28  and  O_29
REMARK    7  A    between atoms: O_29  and  C_30
REMARK                            x       y       z     vdW  Elec       q    Type
REMARK                         _______ _______ _______ _____ _____    ______ ____
ROOT
ATOM      1  C   UNL     1      24.231   1.718  52.306  0.00  0.00    +0.000 A 
ATOM      2  C   UNL     1      22.833   1.655  52.415  0.00  0.00    +0.000 A 
ATOM      3  C   UNL     1      22.188   0.566  53.039  0.00  0.00    +0.000 A 
ATOM      4  C   UNL     1      20.806   0.490  53.301  0.00  0.00    +0.000 A 
ATOM      5  N   UNL     1      20.254  -0.577  53.900  0.00  0.00    +0.000 NA
ATOM      6  C   UNL     1      21.084  -1.557  54.262  0.00  0.00    +0.000 A 
ATOM      7  N   UNL     1      22.410  -1.570  54.099  0.00  0.00    +0.000 NA
ATOM      8  C   UNL     1      22.955  -0.505  53.502  0.00  0.00    +0.000 A 
ATOM      9  C   UNL     1      24.340  -0.456  53.354  0.00  0.00    +0.000 A 
ATOM     10  C   UNL     1      24.999   0.629  52.756  0.00  0.00    +0.000 A 
ENDROOT
BRANCH   4  11
ATOM     11  N   UNL     1      19.949   1.576  52.963  0.00  0.00    +0.000 N 
ATOM     12  H   UNL     1      19.824   2.289  53.630  0.00  0.00    +0.000 HD
BRANCH  11  13
ATOM     13  C   UNL     1      19.263   1.696  51.725  0.00  0.00    +0.000 A 
ATOM     14  C   UNL     1      19.343   2.880  50.977  0.00  0.00    +0.000 A 
ATOM     15  C   UNL     1      18.628   3.012  49.779  0.00  0.00    +0.000 A 
ATOM     16  C   UNL     1      17.815   1.974  49.340  0.00  0.00    +0.000 A 
ATOM     17  F   UNL     1      17.135   2.124  48.192  0.00  0.00    +0.000 F 
ATOM     18  C   UNL     1      17.698   0.807  50.085  0.00  0.00    +0.000 A 
ATOM     19 CL   UNL     1      16.675  -0.477  49.565  0.00  0.00    +0.000 Cl
ATOM     20  C   UNL     1      18.411   0.677  51.276  0.00  0.00    +0.000 A 
ENDBRANCH  11  13
ENDBRANCH   4  11
BRANCH   1  21
ATOM     21  O   UNL     1      24.878   2.819  51.775  0.00  0.00    +0.000 OA
BRANCH  21  27
ATOM     22  C   UNL     1      24.274   7.443  49.443  0.00  0.00    +0.000 C 
ATOM     23  O   UNL     1      24.344   8.276  50.344  0.00  0.00    +0.000 OA
ATOM     24  N   UNL     1      23.645   6.202  49.595  0.00  0.00    +0.000 N 
ATOM     25  C   UNL     1      22.959   5.939  50.852  0.00  0.00    +0.000 C 
ATOM     26  C   UNL     1      23.806   5.023  51.711  0.00  0.00    +0.000 C 
ATOM     27  C   UNL     1      24.068   3.702  50.970  0.00  0.00    +0.000 C 
ATOM     28  C   UNL     1      24.745   3.982  49.615  0.00  0.00    +0.000 C 
ATOM     29  C   UNL     1      23.937   5.006  48.798  0.00  0.00    +0.000 C 
BRANCH  22  31
ATOM     30  C   UNL     1      26.114   7.536  47.833  0.00  0.00    +0.000 C 
ATOM     31  C   UNL     1      24.815   7.722  48.096  0.00  0.00    +0.000 C 
ENDBRANCH  22  31
ENDBRANCH  21  27
ENDBRANCH   1  21
BRANCH  10  32
ATOM     32  O   UNL     1      26.364   0.717  52.627  0.00  0.00    +0.000 OA
BRANCH  32  33
ATOM     33  C   UNL     1      27.155   1.088  53.758  0.00  0.00    +0.000 C 
ATOM     34  C   UNL     1      28.397   0.238  53.936  0.00  0.00    +0.000 C 
ATOM     35  C   UNL     1      29.347   1.163  54.668  0.00  0.00    +0.000 C 
ATOM     36  O   UNL     1      28.995   2.505  54.309  0.00  0.00    +0.000 OA
ATOM     37  C   UNL     1      27.791   2.456  53.526  0.00  0.00    +0.000 C 
ENDBRANCH  32  33
ENDBRANCH  10  32
TORSDOF 7
ENDMDL
MODEL 7
REMARK VINA RESULT:    -8.716      3.507      6.912
REMARK INTER + INTRA:         -13.835
REMARK INTER:                 -12.203
REMARK INTRA:                  -1.632
REMARK UNBOUND:                -1.552
REMARK  Name = 
REMARK  7 active torsions:
REMARK  status: ('A' for Active; 'I' for Inactive)
REMARK    1  A    between atoms: C_2  and  C_3
REMARK    2  A    between atoms: C_8  and  O_9
REMARK    3  A    between atoms: O_9  and  C_10
REMARK    4  A    between atoms: C_13  and  N_14
REMARK    5  A    between atoms: N_14  and  C_15
REMARK    6  A    between atoms: C_28  and  O_29
REMARK    7  A    between atoms: O_29  and  C_30
REMARK                            x       y       z     vdW  Elec       q    Type
REMARK                         _______ _______ _______ _____ _____    ______ ____
ROOT
ATOM      1  C   UNL     1      22.993   4.484  52.196  0.00  0.00    +0.000 A 
ATOM      2  C   UNL     1      23.775   5.497  51.620  0.00  0.00    +0.000 A 
ATOM      3  C   UNL     1      23.201   6.516  50.830  0.00  0.00    +0.000 A 
ATOM      4  C   UNL     1      23.895   7.634  50.327  0.00  0.00    +0.000 A 
ATOM      5  N   UNL     1      23.288   8.570  49.580  0.00  0.00    +0.000 NA
ATOM      6  C   UNL     1      21.983   8.406  49.358  0.00  0.00    +0.000 A 
ATOM      7  N   UNL     1      21.223   7.409  49.819  0.00  0.00    +0.000 NA
ATOM      8  C   UNL     1      21.831   6.479  50.562  0.00  0.00    +0.000 A 
ATOM      9  C   UNL     1      21.066   5.448  51.103  0.00  0.00    +0.000 A 
ATOM     10  C   UNL     1      21.616   4.440  51.907  0.00  0.00    +0.000 A 
ENDROOT
BRANCH   4  11
ATOM     11  N   UNL     1      25.274   7.820  50.631  0.00  0.00    +0.000 N 
ATOM     12  H   UNL     1      25.505   8.181  51.517  0.00  0.00    +0.000 HD
BRANCH  11  13
ATOM     13  C   UNL     1      26.336   7.522  49.737  0.00  0.00    +0.000 A 
ATOM     14  C   UNL     1      26.457   6.242  49.174  0.00  0.00    +0.000 A 
ATOM     15  C   UNL     1      27.531   5.938  48.329  0.00  0.00    +0.000 A 
ATOM     16  C   UNL     1      28.498   6.900  48.063  0.00  0.00    +0.000 A 
ATOM     17  F   UNL     1      29.522   6.585  47.253  0.00  0.00    +0.000 F 
ATOM     18  C   UNL     1      28.413   8.163  48.638  0.00  0.00    +0.000 A 
ATOM     19 CL   UNL     1      29.616   9.357  48.337  0.00  0.00    +0.000 Cl
ATOM     20  C   UNL     1      27.342   8.464  49.478  0.00  0.00    +0.000 A 
ENDBRANCH  11  13
ENDBRANCH   4  11
BRANCH   1  21
ATOM     21  O   UNL     1      23.530   3.531  53.041  0.00  0.00    +0.000 OA
BRANCH  21  27
ATOM     22  C   UNL     1      27.087  -0.280  53.151  0.00  0.00    +0.000 C 
ATOM     23  O   UNL     1      27.263  -0.530  54.342  0.00  0.00    +0.000 OA
ATOM     24  N   UNL     1      26.885   1.017  52.663  0.00  0.00    +0.000 N 
ATOM     25  C   UNL     1      26.989   2.121  53.607  0.00  0.00    +0.000 C 
ATOM     26  C   UNL     1      25.602   2.608  53.973  0.00  0.00    +0.000 C 
ATOM     27  C   UNL     1      24.856   3.067  52.710  0.00  0.00    +0.000 C 
ATOM     28  C   UNL     1      24.793   1.917  51.687  0.00  0.00    +0.000 C 
ATOM     29  C   UNL     1      26.196   1.348  51.412  0.00  0.00    +0.000 C 
BRANCH  22  31
ATOM     30  C   UNL     1      27.135  -2.634  52.489  0.00  0.00    +0.000 C 
ATOM     31  C   UNL     1      27.131  -1.345  52.128  0.00  0.00    +0.000 C 
ENDBRANCH  22  31
ENDBRANCH  21  27
ENDBRANCH   1  21
BRANCH  10  32
ATOM     32  O   UNL     1      20.880   3.430  52.479  0.00  0.00    +0.000 OA
BRANCH  32  33
ATOM     33  C   UNL     1      20.941   2.113  51.926  0.00  0.00    +0.000 C 
ATOM     34  C   UNL     1      21.144   1.028  52.964  0.00  0.00    +0.000 C 
ATOM     35  C   UNL     1      20.518  -0.190  52.317  0.00  0.00    +0.000 C 
ATOM     36  O   UNL     1      19.500   0.279  51.425  0.00  0.00    +0.000 OA
ATOM     37  C   UNL     1      19.575   1.713  51.376  0.00  0.00    +0.000 C 
ENDBRANCH  32  33
ENDBRANCH  10  32
TORSDOF 7
ENDMDL
MODEL 8
REMARK VINA RESULT:    -8.377      4.367      7.532
REMARK INTER + INTRA:         -13.357
REMARK INTER:                 -12.404
REMARK INTRA:                  -0.952
REMARK UNBOUND:                -1.552
REMARK  Name = 
REMARK  7 active torsions:
REMARK  status: ('A' for Active; 'I' for Inactive)
REMARK    1  A    between atoms: C_2  and  C_3
REMARK    2  A    between atoms: C_8  and  O_9
REMARK    3  A    between atoms: O_9  and  C_10
REMARK    4  A    between atoms: C_13  and  N_14
REMARK    5  A    between atoms: N_14  and  C_15
REMARK    6  A    between atoms: C_28  and  O_29
REMARK    7  A    between atoms: O_29  and  C_30
REMARK                            x       y       z     vdW  Elec       q    Type
REMARK                         _______ _______ _______ _____ _____    ______ ____
ROOT
ATOM      1  C   UNL     1      24.062   1.025  52.332  0.00  0.00    +0.000 A 
ATOM      2  C   UNL     1      22.739   0.767  51.941  0.00  0.00    +0.000 A 
ATOM      3  C   UNL     1      21.881  -0.039  52.719  0.00  0.00    +0.000 A 
ATOM      4  C   UNL     1      20.511  -0.239  52.463  0.00  0.00    +0.000 A 
ATOM      5  N   UNL     1      19.748  -1.020  53.245  0.00  0.00    +0.000 NA
ATOM      6  C   UNL     1      20.346  -1.578  54.298  0.00  0.00    +0.000 A 
ATOM      7  N   UNL     1      21.624  -1.424  54.656  0.00  0.00    +0.000 NA
ATOM      8  C   UNL     1      22.380  -0.646  53.874  0.00  0.00    +0.000 A 
ATOM      9  C   UNL     1      23.706  -0.419  54.236  0.00  0.00    +0.000 A 
ATOM     10  C   UNL     1      24.566   0.396  53.485  0.00  0.00    +0.000 A 
ENDROOT
BRANCH   4  11
ATOM     11  N   UNL     1      19.880   0.420  51.369  0.00  0.00    +0.000 N 
ATOM     12  H   UNL     1      20.426   0.617  50.574  0.00  0.00    +0.000 HD
BRANCH  11  13
ATOM     13  C   UNL     1      18.515   0.812  51.352  0.00  0.00    +0.000 A 
ATOM     14  C   UNL     1      17.519  -0.090  50.948  0.00  0.00    +0.000 A 
ATOM     15  C   UNL     1      16.179   0.313  50.889  0.00  0.00    +0.000 A 
ATOM     16  C   UNL     1      15.835   1.622  51.208  0.00  0.00    +0.000 A 
ATOM     17  F   UNL     1      14.545   1.989  51.139  0.00  0.00    +0.000 F 
ATOM     18  C   UNL     1      16.813   2.538  51.577  0.00  0.00    +0.000 A 
ATOM     19 CL   UNL     1      16.403   4.168  51.951  0.00  0.00    +0.000 Cl
ATOM     20  C   UNL     1      18.145   2.134  51.638  0.00  0.00    +0.000 A 
ENDBRANCH  11  13
ENDBRANCH   4  11
BRANCH   1  21
ATOM     21  O   UNL     1      24.885   1.881  51.624  0.00  0.00    +0.000 OA
BRANCH  21  27
ATOM     22  C   UNL     1      25.206   6.701  49.659  0.00  0.00    +0.000 C 
ATOM     23  O   UNL     1      25.603   7.406  50.584  0.00  0.00    +0.000 OA
ATOM     24  N   UNL     1      24.301   5.646  49.834  0.00  0.00    +0.000 N 
ATOM     25  C   UNL     1      23.736   5.450  51.161  0.00  0.00    +0.000 C 
ATOM     26  C   UNL     1      24.420   4.279  51.836  0.00  0.00    +0.000 C 
ATOM     27  C   UNL     1      24.235   3.007  50.995  0.00  0.00    +0.000 C 
ATOM     28  C   UNL     1      24.783   3.230  49.573  0.00  0.00    +0.000 C 
ATOM     29  C   UNL     1      24.171   4.492  48.939  0.00  0.00    +0.000 C 
BRANCH  22  31
ATOM     30  C   UNL     1      26.603   7.830  47.998  0.00  0.00    +0.000 C 
ATOM     31  C   UNL     1      25.624   6.956  48.265  0.00  0.00    +0.000 C 
ENDBRANCH  22  31
ENDBRANCH  21  27
ENDBRANCH   1  21
BRANCH  10  32
ATOM     32  O   UNL     1      25.867   0.662  53.837  0.00  0.00    +0.000 OA
BRANCH  32  33
ATOM     33  C   UNL     1      26.932  -0.004  53.154  0.00  0.00    +0.000 C 
ATOM     34  C   UNL     1      28.241   0.001  53.918  0.00  0.00    +0.000 C 
ATOM     35  C   UNL     1      28.944  -1.240  53.407  0.00  0.00    +0.000 C 
ATOM     36  O   UNL     1      27.929  -2.167  53.001  0.00  0.00    +0.000 OA
ATOM     37  C   UNL     1      26.657  -1.504  53.091  0.00  0.00    +0.000 C 
ENDBRANCH  32  33
ENDBRANCH  10  32
TORSDOF 7
ENDMDL
MODEL 9
REMARK VINA RESULT:    -8.298      2.570      3.109
REMARK INTER + INTRA:         -13.245
REMARK INTER:                 -12.246
REMARK INTRA:                  -1.000
REMARK UNBOUND:                -1.552
REMARK  Name = 
REMARK  7 active torsions:
REMARK  status: ('A' for Active; 'I' for Inactive)
REMARK    1  A    between atoms: C_2  and  C_3
REMARK    2  A    between atoms: C_8  and  O_9
REMARK    3  A    between atoms: O_9  and  C_10
REMARK    4  A    between atoms: C_13  and  N_14
REMARK    5  A    between atoms: N_14  and  C_15
REMARK    6  A    between atoms: C_28  and  O_29
REMARK    7  A    between atoms: O_29  and  C_30
REMARK                            x       y       z     vdW  Elec       q    Type
REMARK                         _______ _______ _______ _____ _____    ______ ____
ROOT
ATOM      1  C   UNL     1      21.447   2.362  51.341  0.00  0.00    +0.000 A 
ATOM      2  C   UNL     1      22.646   2.062  52.006  0.00  0.00    +0.000 A 
ATOM      3  C   UNL     1      22.769   0.926  52.833  0.00  0.00    +0.000 A 
ATOM      4  C   UNL     1      23.968   0.487  53.428  0.00  0.00    +0.000 A 
ATOM      5  N   UNL     1      24.017  -0.606  54.207  0.00  0.00    +0.000 NA
ATOM      6  C   UNL     1      22.876  -1.277  54.368  0.00  0.00    +0.000 A 
ATOM      7  N   UNL     1      21.697  -0.975  53.820  0.00  0.00    +0.000 NA
ATOM      8  C   UNL     1      21.652   0.115  53.046  0.00  0.00    +0.000 A 
ATOM      9  C   UNL     1      20.453   0.440  52.416  0.00  0.00    +0.000 A 
ATOM     10  C   UNL     1      20.319   1.554  51.573  0.00  0.00    +0.000 A 
ENDROOT
BRANCH   4  11
ATOM     11  N   UNL     1      25.186   1.185  53.188  0.00  0.00    +0.000 N 
ATOM     12  H   UNL     1      25.130   2.100  52.830  0.00  0.00    +0.000 HD
BRANCH  11  13
ATOM     13  C   UNL     1      26.477   0.645  53.431  0.00  0.00    +0.000 A 
ATOM     14  C   UNL     1      27.507   1.456  53.932  0.00  0.00    +0.000 A 
ATOM     15  C   UNL     1      28.791   0.932  54.128  0.00  0.00    +0.000 A 
ATOM     16  C   UNL     1      29.056  -0.393  53.801  0.00  0.00    +0.000 A 
ATOM     17  F   UNL     1      30.295  -0.874  53.992  0.00  0.00    +0.000 F 
ATOM     18  C   UNL     1      28.056  -1.202  53.273  0.00  0.00    +0.000 A 
ATOM     19 CL   UNL     1      28.376  -2.838  52.841  0.00  0.00    +0.000 Cl
ATOM     20  C   UNL     1      26.778  -0.679  53.080  0.00  0.00    +0.000 A 
ENDBRANCH  11  13
ENDBRANCH   4  11
BRANCH   1  21
ATOM     21  O   UNL     1      21.340   3.423  50.461  0.00  0.00    +0.000 OA
BRANCH  21  27
ATOM     22  C   UNL     1      23.636   7.612  48.370  0.00  0.00    +0.000 C 
ATOM     23  O   UNL     1      23.798   7.339  47.183  0.00  0.00    +0.000 OA
ATOM     24  N   UNL     1      23.792   6.676  49.400  0.00  0.00    +0.000 N 
ATOM     25  C   UNL     1      24.265   5.347  49.042  0.00  0.00    +0.000 C 
ATOM     26  C   UNL     1      23.103   4.375  49.048  0.00  0.00    +0.000 C 
ATOM     27  C   UNL     1      22.452   4.343  50.439  0.00  0.00    +0.000 C 
ATOM     28  C   UNL     1      22.000   5.758  50.843  0.00  0.00    +0.000 C 
ATOM     29  C   UNL     1      23.159   6.763  50.719  0.00  0.00    +0.000 C 
BRANCH  22  31
ATOM     30  C   UNL     1      22.538   9.774  48.044  0.00  0.00    +0.000 C 
ATOM     31  C   UNL     1      23.310   8.987  48.803  0.00  0.00    +0.000 C 
ENDBRANCH  22  31
ENDBRANCH  21  27
ENDBRANCH   1  21
BRANCH  10  32
ATOM     32  O   UNL     1      19.158   1.879  50.914  0.00  0.00    +0.000 OA
BRANCH  32  33
ATOM     33  C   UNL     1      18.087   2.493  51.635  0.00  0.00    +0.000 C 
ATOM     34  C   UNL     1      17.805   3.919  51.207  0.00  0.00    +0.000 C 
ATOM     35  C   UNL     1      16.340   4.098  51.545  0.00  0.00    +0.000 C 
ATOM     36  O   UNL     1      15.726   2.805  51.477  0.00  0.00    +0.000 OA
ATOM     37  C   UNL     1      16.761   1.831  51.269  0.00  0.00    +0.000 C 
ENDBRANCH  32  33
ENDBRANCH  10  32
TORSDOF 7
ENDMDL
