REMARK  Name = 
REMARK  8 active torsions:
REMARK  status: ('A' for Active; 'I' for Inactive)
REMARK    1  A    between atoms: C_2  and  C_3
REMARK    2  A    between atoms: C_9  and  C_10
REMARK    3  A    between atoms: C_10  and  S_11
REMARK    4  A    between atoms: S_11  and  C_12
REMARK    5  A    between atoms: C_14  and  C_15
REMARK    6  A    between atoms: C_22  and  C_23
REMARK    7  A    between atoms: C_27  and  N_28
REMARK    8  A    between atoms: N_28  and  C_29
REMARK                            x       y       z     vdW  Elec       q    Type
REMARK                         _______ _______ _______ _____ _____    ______ ____
ROOT
ATOM      1  C   UNL     1      -5.910   2.315   1.257  0.00  0.00    +0.000 A 
ATOM      2  N   UNL     1      -6.441   2.180   2.445  0.00  0.00    +0.000 NA
ATOM      3  C   UNL     1      -6.024   3.293   3.157  0.00  0.00    +0.000 A 
ATOM      4  C   UNL     1      -5.156   4.082   2.402  0.00  0.00    +0.000 A 
ATOM      5  N   UNL     1      -5.159   3.451   1.168  0.00  0.00    +0.000 N 
ATOM      6  H   UNL     1      -4.695   3.770   0.361  0.00  0.00    +0.000 HD
ENDROOT
BRANCH   3   7
ATOM      7  C   UNL     1      -6.463   3.548   4.521  0.00  0.00    +0.000 A 
ATOM      8  C   UNL     1      -6.622   2.476   5.411  0.00  0.00    +0.000 A 
ATOM      9  C   UNL     1      -7.027   2.706   6.730  0.00  0.00    +0.000 A 
ATOM     10  C   UNL     1      -7.275   4.006   7.156  0.00  0.00    +0.000 A 
ATOM     11  F   UNL     1      -7.653   4.226   8.422  0.00  0.00    +0.000 F 
ATOM     12  C   UNL     1      -7.140   5.079   6.287  0.00  0.00    +0.000 A 
ATOM     13  C   UNL     1      -6.749   4.849   4.966  0.00  0.00    +0.000 A 
ENDBRANCH   3   7
BRANCH   4  14
ATOM     14  C   UNL     1      -4.343   5.269   2.693  0.00  0.00    +0.000 A 
ATOM     15  C   UNL     1      -4.222   6.294   1.758  0.00  0.00    +0.000 A 
ATOM     16  C   UNL     1      -3.440   7.387   2.080  0.00  0.00    +0.000 A 
ATOM     17  N   UNL     1      -2.768   7.512   3.239  0.00  0.00    +0.000 NA
ATOM     18  C   UNL     1      -2.856   6.521   4.150  0.00  0.00    +0.000 A 
ATOM     19  C   UNL     1      -3.659   5.403   3.914  0.00  0.00    +0.000 A 
BRANCH  18  20
ATOM     20  N   UNL     1      -2.174   6.653   5.386  0.00  0.00    +0.000 N 
ATOM     21  H   UNL     1      -2.570   6.234   6.184  0.00  0.00    +0.000 HD
BRANCH  20  22
ATOM     22  C   UNL     1      -0.947   7.358   5.538  0.00  0.00    +0.000 A 
ATOM     23  C   UNL     1      -0.600   7.878   6.789  0.00  0.00    +0.000 A 
ATOM     24  C   UNL     1       0.629   8.523   6.977  0.00  0.00    +0.000 A 
ATOM     25  C   UNL     1       1.539   8.622   5.923  0.00  0.00    +0.000 A 
ATOM     26  C   UNL     1       1.219   8.076   4.682  0.00  0.00    +0.000 A 
ATOM     27  C   UNL     1      -0.006   7.437   4.499  0.00  0.00    +0.000 A 
ENDBRANCH  20  22
ENDBRANCH  18  20
ENDBRANCH   4  14
BRANCH   1  28
ATOM     28  S   UNL     1      -6.023   1.251  -0.102  0.00  0.00    +0.000 S 
BRANCH  28  29
ATOM     29  C   UNL     1      -7.481   0.230   0.341  0.00  0.00    +0.000 C 
BRANCH  29  36
ATOM     30  C   UNL     1      -9.335  -0.299  -2.383  0.00  0.00    +0.000 C 
ATOM     31  O   UNL     1     -10.204  -0.005  -1.564  0.00  0.00    +0.000 OA
ATOM     32  N   UNL     1      -8.044  -0.625  -2.008  0.00  0.00    +0.000 N 
ATOM     33  C   UNL     1      -6.990  -1.174  -2.849  0.00  0.00    +0.000 C 
ATOM     34  C   UNL     1      -6.602  -2.445  -2.120  0.00  0.00    +0.000 C 
ATOM     35  C   UNL     1      -6.671  -2.034  -0.651  0.00  0.00    +0.000 C 
ATOM     36  C   UNL     1      -7.782  -0.965  -0.598  0.00  0.00    +0.000 C 
BRANCH  30  38
ATOM     37  C   UNL     1     -10.936  -0.646  -4.214  0.00  0.00    +0.000 C 
ATOM     38  C   UNL     1      -9.674  -0.405  -3.830  0.00  0.00    +0.000 C 
ENDBRANCH  30  38
ENDBRANCH  29  36
ENDBRANCH  28  29
ENDBRANCH   1  28
TORSDOF 8
