
     RDKit          3D

 82 87  0  0  0  0  0  0  0  0999 V2000
   -0.1569   -2.8188    3.0722 C   0  0  0  0  0  0  0  0  0  0  0  0
    0.3312   -2.0477    1.9795 O   0  0  0  0  0  0  0  0  0  0  0  0
   -0.4700   -1.5375    0.9448 C   0  0  0  0  0  0  0  0  0  0  0  0
   -1.8534   -1.7830    0.8841 C   0  0  0  0  0  0  0  0  0  0  0  0
   -2.6320   -1.2437   -0.1469 C   0  0  0  0  0  0  0  0  0  0  0  0
   -4.0527   -1.4411   -0.1327 N   0  0  0  0  0  0  0  0  0  0  0  0
   -4.5916   -2.7835   -0.3846 C   0  0  0  0  0  0  0  0  0  0  0  0
   -6.1250   -2.7873   -0.3400 C   0  0  0  0  0  0  0  0  0  0  0  0
   -6.6851   -1.5835   -1.1154 C   0  0  0  0  0  0  0  0  0  0  0  0
   -8.1570   -1.7318   -1.2592 N   0  0  0  0  0  0  0  0  0  0  0  0
   -8.9869   -1.4355   -0.0804 C   0  0  0  0  0  0  0  0  0  0  0  0
   -9.7985   -0.3850   -0.8358 C   0  0  0  0  0  0  0  0  0  0  0  0
  -11.0825   -0.8258   -1.1140 F   0  0  0  0  0  0  0  0  0  0  0  0
   -9.7781    1.0433   -0.2750 C   0  0  0  0  0  0  0  0  0  0  0  0
  -10.3475    1.0540    1.0035 O   0  0  0  0  0  0  0  0  0  0  0  0
   -8.8394   -0.6561   -1.9930 C   0  0  0  0  0  0  0  0  0  0  0  0
   -6.1691   -0.2250   -0.5373 C   0  0  0  0  0  0  0  0  0  0  0  0
   -4.9232   -0.3681    0.3520 C   0  0  0  0  0  0  0  0  0  0  0  0
   -2.0224   -0.4761   -1.1581 C   0  0  0  0  0  0  0  0  0  0  0  0
   -2.8343    0.1117   -2.2796 C   0  0  0  0  0  0  0  0  0  0  0  0
   -0.6454   -0.2200   -1.0907 C   0  0  0  0  0  0  0  0  0  0  0  0
    0.1298   -0.7345   -0.0398 C   0  0  0  0  0  0  0  0  0  0  0  0
    1.5358   -0.4520    0.0318 N   0  0  0  0  0  0  0  0  0  0  0  0
    2.0693    0.8787   -0.0288 C   0  0  0  0  0  0  0  0  0  0  0  0
    1.2559    1.9480   -0.2407 N   0  0  0  0  0  0  0  0  0  0  0  0
    1.7495    3.2110   -0.2553 C   0  0  0  0  0  0  0  0  0  0  0  0
    3.1084    3.4361   -0.0305 C   0  0  0  0  0  0  0  0  0  0  0  0
    3.7595    5.2394   -0.0369 Br  0  0  0  0  0  0  0  0  0  0  0  0
    3.9391    2.3260    0.2094 C   0  0  0  0  0  0  0  0  0  0  0  0
    5.3473    2.4886    0.4616 N   0  0  0  0  0  0  0  0  0  0  0  0
    6.1915    1.4147    0.9120 C   0  0  0  0  0  0  0  0  0  0  0  0
    5.7658    0.6135    1.9868 C   0  0  0  0  0  0  0  0  0  0  0  0
    6.5877   -0.3817    2.5096 C   0  0  0  0  0  0  0  0  0  0  0  0
    7.8646   -0.5716    1.9891 C   0  0  0  0  0  0  0  0  0  0  0  0
    8.6855   -1.5157    2.5204 N   0  0  0  0  0  0  0  0  0  0  0  0
    9.9441   -1.7049    2.0441 C   0  0  0  0  0  0  0  0  0  0  0  0
   10.4061   -0.9126    0.9942 C   0  0  0  0  0  0  0  0  0  0  0  0
    9.5884    0.0297    0.4573 N   0  0  0  0  0  0  0  0  0  0  0  0
    8.3209    0.2252    0.9147 C   0  0  0  0  0  0  0  0  0  0  0  0
    7.4743    1.2037    0.3424 C   0  0  0  0  0  0  0  0  0  0  0  0
    8.0304    2.2024   -1.0718 P   0  0  0  0  0  0  0  0  0  0  0  0
    8.8823    3.6782   -0.4467 C   0  0  0  0  0  0  0  0  0  0  0  0
    9.1528    1.3098   -2.1918 C   0  0  0  0  0  0  0  0  0  0  0  0
    6.8406    2.6351   -1.8995 O   0  0  0  0  0  0  0  0  0  0  0  0
    3.3949    1.0782    0.1913 N   0  0  0  0  0  0  0  0  0  0  0  0
   -0.6130   -3.7607    2.7013 H   0  0  0  0  0  0  0  0  0  0  0  0
   -0.9038   -2.2350    3.6511 H   0  0  0  0  0  0  0  0  0  0  0  0
    0.6902   -3.0741    3.7412 H   0  0  0  0  0  0  0  0  0  0  0  0
   -2.3442   -2.3655    1.6515 H   0  0  0  0  0  0  0  0  0  0  0  0
   -4.2598   -3.1196   -1.3906 H   0  0  0  0  0  0  0  0  0  0  0  0
   -4.2000   -3.4986    0.3689 H   0  0  0  0  0  0  0  0  0  0  0  0
   -6.5014   -3.7334   -0.7859 H   0  0  0  0  0  0  0  0  0  0  0  0
   -6.4667   -2.7484    0.7163 H   0  0  0  0  0  0  0  0  0  0  0  0
   -6.2617   -1.6659   -2.1419 H   0  0  0  0  0  0  0  0  0  0  0  0
   -9.5997   -2.3214    0.1917 H   0  0  0  0  0  0  0  0  0  0  0  0
   -8.4292   -1.0482    0.7979 H   0  0  0  0  0  0  0  0  0  0  0  0
   -8.7508    1.4564   -0.2343 H   0  0  0  0  0  0  0  0  0  0  0  0
  -10.3733    1.6939   -0.9523 H   0  0  0  0  0  0  0  0  0  0  0  0
  -10.2944    1.9932    1.3184 H   0  0  0  0  0  0  0  0  0  0  0  0
   -8.1838    0.2060   -2.2493 H   0  0  0  0  0  0  0  0  0  0  0  0
   -9.3581   -1.0640   -2.8879 H   0  0  0  0  0  0  0  0  0  0  0  0
   -6.9242    0.3043    0.0613 H   0  0  0  0  0  0  0  0  0  0  0  0
   -5.9191    0.4467   -1.3878 H   0  0  0  0  0  0  0  0  0  0  0  0
   -5.2344   -0.6042    1.3916 H   0  0  0  0  0  0  0  0  0  0  0  0
   -4.3796    0.6014    0.3802 H   0  0  0  0  0  0  0  0  0  0  0  0
   -3.6071   -0.6096   -2.6202 H   0  0  0  0  0  0  0  0  0  0  0  0
   -2.1935    0.3533   -3.1526 H   0  0  0  0  0  0  0  0  0  0  0  0
   -3.3260    1.0437   -1.9325 H   0  0  0  0  0  0  0  0  0  0  0  0
   -0.1716    0.3713   -1.8636 H   0  0  0  0  0  0  0  0  0  0  0  0
    2.1787   -1.2168    0.3376 H   0  0  0  0  0  0  0  0  0  0  0  0
    1.0818    4.0439   -0.4333 H   0  0  0  0  0  0  0  0  0  0  0  0
    5.7917    3.4205    0.3132 H   0  0  0  0  0  0  0  0  0  0  0  0
    4.7982    0.7803    2.4433 H   0  0  0  0  0  0  0  0  0  0  0  0
    6.2381   -0.9885    3.3370 H   0  0  0  0  0  0  0  0  0  0  0  0
   10.5816   -2.4595    2.4830 H   0  0  0  0  0  0  0  0  0  0  0  0
   11.4085   -1.0452    0.6096 H   0  0  0  0  0  0  0  0  0  0  0  0
    9.1682    4.3284   -1.3003 H   0  0  0  0  0  0  0  0  0  0  0  0
    8.2086    4.2375    0.2344 H   0  0  0  0  0  0  0  0  0  0  0  0
    9.7932    3.3720    0.1046 H   0  0  0  0  0  0  0  0  0  0  0  0
    8.7396    0.3029   -2.4128 H   0  0  0  0  0  0  0  0  0  0  0  0
    9.2548    1.8813   -3.1367 H   0  0  0  0  0  0  0  0  0  0  0  0
   10.1581    1.2168   -1.7350 H   0  0  0  0  0  0  0  0  0  0  0  0
  1  2  1  0
  2  3  1  0
  3  4  2  0
  4  5  1  0
  5  6  1  0
  6  7  1  0
  7  8  1  0
  8  9  1  0
  9 10  1  0
 10 11  1  0
 11 12  1  0
 12 13  1  0
 12 14  1  0
 14 15  1  0
 12 16  1  0
  9 17  1  0
 17 18  1  0
  5 19  2  0
 19 20  1  0
 19 21  1  0
 21 22  2  0
 22 23  1  0
 23 24  1  0
 24 25  2  0
 25 26  1  0
 26 27  2  0
 27 28  1  0
 27 29  1  0
 29 30  1  0
 30 31  1  0
 31 32  2  0
 32 33  1  0
 33 34  2  0
 34 35  1  0
 35 36  2  0
 36 37  1  0
 37 38  2  0
 38 39  1  0
 39 40  2  0
 40 41  1  0
 41 42  1  0
 41 43  1  0
 41 44  2  0
 29 45  2  0
 22  3  1  0
 45 24  1  0
 18  6  1  0
 40 31  1  0
 16 10  1  0
 39 34  1  0
  1 46  1  0
  1 47  1  0
  1 48  1  0
  4 49  1  0
  7 50  1  0
  7 51  1  0
  8 52  1  0
  8 53  1  0
  9 54  1  0
 11 55  1  0
 11 56  1  0
 14 57  1  0
 14 58  1  0
 15 59  1  0
 16 60  1  0
 16 61  1  0
 17 62  1  0
 17 63  1  0
 18 64  1  0
 18 65  1  0
 20 66  1  0
 20 67  1  0
 20 68  1  0
 21 69  1  0
 23 70  1  0
 26 71  1  0
 30 72  1  0
 32 73  1  0
 33 74  1  0
 36 75  1  0
 37 76  1  0
 42 77  1  0
 42 78  1  0
 42 79  1  0
 43 80  1  0
 43 81  1  0
 43 82  1  0
M  END
