MODEL 1
REMARK VINA RESULT:    -9.033      0.000      0.000
REMARK INTER + INTRA:         -16.596
REMARK INTER:                 -14.314
REMARK INTRA:                  -2.283
REMARK UNBOUND:                -2.283
REMARK  Name = 
REMARK  13 active torsions:
REMARK  status: ('A' for Active; 'I' for Inactive)
REMARK    1  A    between atoms: C_1  and  O_2
REMARK    2  A    between atoms: O_2  and  C_3
REMARK    3  A    between atoms: C_9  and  N_10
REMARK    4  A    between atoms: N_10  and  C_11
REMARK    5  A    between atoms: C_14  and  O_15
REMARK    6  A    between atoms: O_15  and  C_16
REMARK    7  A    between atoms: C_16  and  C_17
REMARK    8  A    between atoms: C_29  and  N_30
REMARK    9  A    between atoms: C_31  and  C_33
REMARK   10  A    between atoms: C_35  and  C_36
REMARK   11  A    between atoms: C_36  and  N_37
REMARK   12  A    between atoms: N_37  and  C_38
REMARK   13  A    between atoms: N_37  and  C_39
REMARK                            x       y       z     vdW  Elec       q    Type
REMARK                         _______ _______ _______ _____ _____    ______ ____
ROOT
ATOM      1  C   UNL     1      23.816   1.424  53.119  0.00  0.00    +0.000 A 
ATOM      2  C   UNL     1      22.480   1.610  52.710  0.00  0.00    +0.000 A 
ATOM      3  C   UNL     1      22.014   2.815  52.194  0.00  0.00    +0.000 A 
ATOM      4  N   UNL     1      20.743   2.924  51.798  0.00  0.00    +0.000 NA
ATOM      5  C   UNL     1      20.367   4.113  51.312  0.00  0.00    +0.000 A 
ATOM      6  N   UNL     1      21.131   5.205  51.219  0.00  0.00    +0.000 NA
ATOM      7  C   UNL     1      22.405   5.093  51.633  0.00  0.00    +0.000 A 
ATOM      8  C   UNL     1      22.916   3.874  52.097  0.00  0.00    +0.000 A 
ATOM      9  C   UNL     1      24.260   3.666  52.453  0.00  0.00    +0.000 A 
ATOM     10  C   UNL     1      24.717   2.491  53.041  0.00  0.00    +0.000 A 
ENDROOT
BRANCH  10  11
ATOM     11  N   UNL     1      26.052   2.397  53.530  0.00  0.00    +0.000 N 
ATOM     12  C   UNL     1      27.150   2.076  52.735  0.00  0.00    +0.000 C 
ATOM     13  O   UNL     1      27.108   1.858  51.526  0.00  0.00    +0.000 OA
ATOM     14  H   UNL     1      26.207   2.567  54.486  0.00  0.00    +0.000 HD
BRANCH  12  15
ATOM     15  C   UNL     1      28.464   2.058  53.442  0.00  0.00    +0.000 C 
ATOM     16  F   UNL     1      29.166   3.211  53.380  0.00  0.00    +0.000 F 
ATOM     17  C   UNL     1      28.976   1.003  54.098  0.00  0.00    +0.000 C 
BRANCH  17  18
ATOM     18  C   UNL     1      28.336  -0.352  54.303  0.00  0.00    +0.000 C 
BRANCH  18  19
ATOM     19  N   UNL     1      28.387  -1.205  53.096  0.00  0.00    +0.000 N 
ATOM     20  C   UNL     1      29.255  -2.370  53.302  0.00  0.00    +0.000 C 
ATOM     21  C   UNL     1      27.030  -1.676  52.774  0.00  0.00    +0.000 C 
ATOM     22  H   UNL     1      28.765  -0.647  52.331  0.00  0.00    +0.000 HD
ENDBRANCH  18  19
ENDBRANCH  17  18
ENDBRANCH  12  15
ENDBRANCH  10  11
BRANCH   1  24
ATOM     23  C   UNL     1      23.277  -0.777  53.749  0.00  0.00    +0.000 C 
ATOM     24  O   UNL     1      24.282   0.234  53.622  0.00  0.00    +0.000 OA
ENDBRANCH   1  24
BRANCH   7  25
ATOM     25  N   UNL     1      23.197   6.268  51.721  0.00  0.00    +0.000 N 
ATOM     26  H   UNL     1      23.244   6.700  52.605  0.00  0.00    +0.000 HD
BRANCH  25  27
ATOM     27  C   UNL     1      23.920   6.881  50.682  0.00  0.00    +0.000 A 
ATOM     28  C   UNL     1      23.597   6.665  49.346  0.00  0.00    +0.000 A 
ATOM     29  C   UNL     1      24.357   7.233  48.336  0.00  0.00    +0.000 A 
ATOM     30  C   UNL     1      25.443   8.058  48.637  0.00  0.00    +0.000 A 
ATOM     31  C   UNL     1      25.813   8.235  49.976  0.00  0.00    +0.000 A 
ATOM     32 CL   UNL     1      27.202   9.153  50.421  0.00  0.00    +0.000 Cl
ATOM     33  C   UNL     1      25.046   7.654  50.995  0.00  0.00    +0.000 A 
BRANCH  30  34
ATOM     34  O   UNL     1      26.169   8.705  47.664  0.00  0.00    +0.000 OA
BRANCH  34  35
ATOM     35  C   UNL     1      26.912   7.821  46.819  0.00  0.00    +0.000 C 
BRANCH  35  36
ATOM     36  C   UNL     1      28.283   7.521  47.363  0.00  0.00    +0.000 A 
ATOM     37  C   UNL     1      28.608   6.259  47.879  0.00  0.00    +0.000 A 
ATOM     38  C   UNL     1      29.833   6.050  48.515  0.00  0.00    +0.000 A 
ATOM     39  C   UNL     1      30.741   7.100  48.645  0.00  0.00    +0.000 A 
ATOM     40  C   UNL     1      30.425   8.347  48.122  0.00  0.00    +0.000 A 
ATOM     41  F   UNL     1      31.292   9.358  48.252  0.00  0.00    +0.000 F 
ATOM     42  C   UNL     1      29.209   8.568  47.489  0.00  0.00    +0.000 A 
ENDBRANCH  35  36
ENDBRANCH  34  35
ENDBRANCH  30  34
ENDBRANCH  25  27
ENDBRANCH   7  25
TORSDOF 10
ENDMDL
MODEL 2
REMARK VINA RESULT:    -8.789      2.802      3.932
REMARK INTER + INTRA:         -16.210
REMARK INTER:                 -14.754
REMARK INTRA:                  -1.456
REMARK UNBOUND:                -2.283
REMARK  Name = 
REMARK  13 active torsions:
REMARK  status: ('A' for Active; 'I' for Inactive)
REMARK    1  A    between atoms: C_1  and  O_2
REMARK    2  A    between atoms: O_2  and  C_3
REMARK    3  A    between atoms: C_9  and  N_10
REMARK    4  A    between atoms: N_10  and  C_11
REMARK    5  A    between atoms: C_14  and  O_15
REMARK    6  A    between atoms: O_15  and  C_16
REMARK    7  A    between atoms: C_16  and  C_17
REMARK    8  A    between atoms: C_29  and  N_30
REMARK    9  A    between atoms: C_31  and  C_33
REMARK   10  A    between atoms: C_35  and  C_36
REMARK   11  A    between atoms: C_36  and  N_37
REMARK   12  A    between atoms: N_37  and  C_38
REMARK   13  A    between atoms: N_37  and  C_39
REMARK                            x       y       z     vdW  Elec       q    Type
REMARK                         _______ _______ _______ _____ _____    ______ ____
ROOT
ATOM      1  C   UNL     1      22.355  -0.221  53.451  0.00  0.00    +0.000 A 
ATOM      2  C   UNL     1      20.971  -0.378  53.674  0.00  0.00    +0.000 A 
ATOM      3  C   UNL     1      20.020  -0.116  52.695  0.00  0.00    +0.000 A 
ATOM      4  N   UNL     1      18.723  -0.308  52.957  0.00  0.00    +0.000 NA
ATOM      5  C   UNL     1      17.865  -0.035  51.966  0.00  0.00    +0.000 A 
ATOM      6  N   UNL     1      18.180   0.442  50.759  0.00  0.00    +0.000 NA
ATOM      7  C   UNL     1      19.485   0.647  50.507  0.00  0.00    +0.000 A 
ATOM      8  C   UNL     1      20.469   0.330  51.453  0.00  0.00    +0.000 A 
ATOM      9  C   UNL     1      21.851   0.430  51.218  0.00  0.00    +0.000 A 
ATOM     10  C   UNL     1      22.806   0.245  52.212  0.00  0.00    +0.000 A 
ENDROOT
BRANCH  10  11
ATOM     11  N   UNL     1      24.180   0.519  51.957  0.00  0.00    +0.000 N 
ATOM     12  C   UNL     1      24.722   1.802  51.910  0.00  0.00    +0.000 C 
ATOM     13  O   UNL     1      24.094   2.841  52.101  0.00  0.00    +0.000 OA
ATOM     14  H   UNL     1      24.783  -0.243  51.804  0.00  0.00    +0.000 HD
BRANCH  12  15
ATOM     15  C   UNL     1      26.191   1.864  51.657  0.00  0.00    +0.000 C 
ATOM     16  F   UNL     1      26.544   2.263  50.416  0.00  0.00    +0.000 F 
ATOM     17  C   UNL     1      27.145   1.545  52.549  0.00  0.00    +0.000 C 
BRANCH  17  18
ATOM     18  C   UNL     1      26.953   1.109  53.984  0.00  0.00    +0.000 C 
BRANCH  18  19
ATOM     19  N   UNL     1      27.556  -0.209  54.276  0.00  0.00    +0.000 N 
ATOM     20  C   UNL     1      27.476  -1.102  53.114  0.00  0.00    +0.000 C 
ATOM     21  C   UNL     1      28.971  -0.029  54.638  0.00  0.00    +0.000 C 
ATOM     22  H   UNL     1      27.038  -0.628  55.047  0.00  0.00    +0.000 HD
ENDBRANCH  18  19
ENDBRANCH  17  18
ENDBRANCH  12  15
ENDBRANCH  10  11
BRANCH   1  24
ATOM     23  C   UNL     1      22.881  -1.447  55.388  0.00  0.00    +0.000 C 
ATOM     24  O   UNL     1      23.299  -0.487  54.412  0.00  0.00    +0.000 OA
ENDBRANCH   1  24
BRANCH   7  25
ATOM     25  N   UNL     1      19.849   1.318  49.310  0.00  0.00    +0.000 N 
ATOM     26  H   UNL     1      19.329   1.092  48.504  0.00  0.00    +0.000 HD
BRANCH  25  27
ATOM     27  C   UNL     1      20.872   2.271  49.151  0.00  0.00    +0.000 A 
ATOM     28  C   UNL     1      22.003   2.002  48.387  0.00  0.00    +0.000 A 
ATOM     29  C   UNL     1      23.026   2.932  48.290  0.00  0.00    +0.000 A 
ATOM     30  C   UNL     1      22.929   4.170  48.928  0.00  0.00    +0.000 A 
ATOM     31  C   UNL     1      21.822   4.428  49.747  0.00  0.00    +0.000 A 
ATOM     32 CL   UNL     1      21.681   5.890  50.650  0.00  0.00    +0.000 Cl
ATOM     33  C   UNL     1      20.792   3.483  49.849  0.00  0.00    +0.000 A 
BRANCH  30  34
ATOM     34  O   UNL     1      23.884   5.150  48.787  0.00  0.00    +0.000 OA
BRANCH  34  35
ATOM     35  C   UNL     1      25.047   4.938  49.594  0.00  0.00    +0.000 C 
BRANCH  35  36
ATOM     36  C   UNL     1      26.274   5.593  49.017  0.00  0.00    +0.000 A 
ATOM     37  C   UNL     1      27.414   4.850  48.681  0.00  0.00    +0.000 A 
ATOM     38  C   UNL     1      28.589   5.496  48.292  0.00  0.00    +0.000 A 
ATOM     39  C   UNL     1      28.636   6.888  48.239  0.00  0.00    +0.000 A 
ATOM     40  C   UNL     1      27.503   7.624  48.560  0.00  0.00    +0.000 A 
ATOM     41  F   UNL     1      27.548   8.961  48.517  0.00  0.00    +0.000 F 
ATOM     42  C   UNL     1      26.328   6.994  48.950  0.00  0.00    +0.000 A 
ENDBRANCH  35  36
ENDBRANCH  34  35
ENDBRANCH  30  34
ENDBRANCH  25  27
ENDBRANCH   7  25
TORSDOF 10
ENDMDL
MODEL 3
REMARK VINA RESULT:    -8.725      2.971      5.692
REMARK INTER + INTRA:         -16.108
REMARK INTER:                 -14.118
REMARK INTRA:                  -1.989
REMARK UNBOUND:                -2.283
REMARK  Name = 
REMARK  13 active torsions:
REMARK  status: ('A' for Active; 'I' for Inactive)
REMARK    1  A    between atoms: C_1  and  O_2
REMARK    2  A    between atoms: O_2  and  C_3
REMARK    3  A    between atoms: C_9  and  N_10
REMARK    4  A    between atoms: N_10  and  C_11
REMARK    5  A    between atoms: C_14  and  O_15
REMARK    6  A    between atoms: O_15  and  C_16
REMARK    7  A    between atoms: C_16  and  C_17
REMARK    8  A    between atoms: C_29  and  N_30
REMARK    9  A    between atoms: C_31  and  C_33
REMARK   10  A    between atoms: C_35  and  C_36
REMARK   11  A    between atoms: C_36  and  N_37
REMARK   12  A    between atoms: N_37  and  C_38
REMARK   13  A    between atoms: N_37  and  C_39
REMARK                            x       y       z     vdW  Elec       q    Type
REMARK                         _______ _______ _______ _____ _____    ______ ____
ROOT
ATOM      1  C   UNL     1      23.391  -0.194  53.293  0.00  0.00    +0.000 A 
ATOM      2  C   UNL     1      24.694  -0.012  53.800  0.00  0.00    +0.000 A 
ATOM      3  C   UNL     1      25.610   0.857  53.219  0.00  0.00    +0.000 A 
ATOM      4  N   UNL     1      26.823   1.006  53.760  0.00  0.00    +0.000 NA
ATOM      5  C   UNL     1      27.651   1.861  53.145  0.00  0.00    +0.000 A 
ATOM      6  N   UNL     1      27.392   2.546  52.029  0.00  0.00    +0.000 NA
ATOM      7  C   UNL     1      26.175   2.380  51.482  0.00  0.00    +0.000 A 
ATOM      8  C   UNL     1      25.211   1.560  52.082  0.00  0.00    +0.000 A 
ATOM      9  C   UNL     1      23.893   1.418  51.615  0.00  0.00    +0.000 A 
ATOM     10  C   UNL     1      22.995   0.496  52.141  0.00  0.00    +0.000 A 
ENDROOT
BRANCH  10  11
ATOM     11  N   UNL     1      21.730   0.281  51.524  0.00  0.00    +0.000 N 
ATOM     12  C   UNL     1      20.549   0.896  51.937  0.00  0.00    +0.000 C 
ATOM     13  O   UNL     1      20.458   1.703  52.859  0.00  0.00    +0.000 OA
ATOM     14  H   UNL     1      21.686  -0.338  50.761  0.00  0.00    +0.000 HD
BRANCH  12  15
ATOM     15  C   UNL     1      19.339   0.553  51.134  0.00  0.00    +0.000 C 
ATOM     16  F   UNL     1      18.621  -0.495  51.594  0.00  0.00    +0.000 F 
ATOM     17  C   UNL     1      18.945   1.190  50.017  0.00  0.00    +0.000 C 
BRANCH  17  18
ATOM     18  C   UNL     1      19.592   2.391  49.367  0.00  0.00    +0.000 C 
BRANCH  18  19
ATOM     19  N   UNL     1      20.219   2.079  48.065  0.00  0.00    +0.000 N 
ATOM     20  C   UNL     1      20.043   3.179  47.109  0.00  0.00    +0.000 C 
ATOM     21  C   UNL     1      21.659   1.846  48.258  0.00  0.00    +0.000 C 
ATOM     22  H   UNL     1      19.766   1.245  47.690  0.00  0.00    +0.000 HD
ENDBRANCH  18  19
ENDBRANCH  17  18
ENDBRANCH  12  15
ENDBRANCH  10  11
BRANCH   1  24
ATOM     23  C   UNL     1      22.735  -1.324  55.249  0.00  0.00    +0.000 C 
ATOM     24  O   UNL     1      22.479  -1.045  53.868  0.00  0.00    +0.000 OA
ENDBRANCH   1  24
BRANCH   7  25
ATOM     25  N   UNL     1      25.921   2.945  50.204  0.00  0.00    +0.000 N 
ATOM     26  H   UNL     1      25.683   2.316  49.484  0.00  0.00    +0.000 HD
BRANCH  25  27
ATOM     27  C   UNL     1      25.974   4.307  49.856  0.00  0.00    +0.000 A 
ATOM     28  C   UNL     1      26.959   4.803  49.007  0.00  0.00    +0.000 A 
ATOM     29  C   UNL     1      27.027   6.157  48.722  0.00  0.00    +0.000 A 
ATOM     30  C   UNL     1      26.091   7.047  49.252  0.00  0.00    +0.000 A 
ATOM     31  C   UNL     1      25.131   6.569  50.154  0.00  0.00    +0.000 A 
ATOM     32 CL   UNL     1      24.009   7.621  50.930  0.00  0.00    +0.000 Cl
ATOM     33  C   UNL     1      25.069   5.199  50.445  0.00  0.00    +0.000 A 
BRANCH  30  34
ATOM     34  O   UNL     1      26.076   8.383  48.926  0.00  0.00    +0.000 OA
BRANCH  34  35
ATOM     35  C   UNL     1      27.030   9.163  49.655  0.00  0.00    +0.000 C 
BRANCH  35  36
ATOM     36  C   UNL     1      28.260   9.473  48.842  0.00  0.00    +0.000 A 
ATOM     37  C   UNL     1      28.170   9.929  47.520  0.00  0.00    +0.000 A 
ATOM     38  C   UNL     1      29.320  10.064  46.739  0.00  0.00    +0.000 A 
ATOM     39  C   UNL     1      30.567   9.742  47.272  0.00  0.00    +0.000 A 
ATOM     40  C   UNL     1      30.658   9.302  48.586  0.00  0.00    +0.000 A 
ATOM     41  F   UNL     1      31.854   8.984  49.097  0.00  0.00    +0.000 F 
ATOM     42  C   UNL     1      29.521   9.162  49.373  0.00  0.00    +0.000 A 
ENDBRANCH  35  36
ENDBRANCH  34  35
ENDBRANCH  30  34
ENDBRANCH  25  27
ENDBRANCH   7  25
TORSDOF 10
ENDMDL
MODEL 4
REMARK VINA RESULT:    -8.658      4.361      7.400
REMARK INTER + INTRA:         -16.003
REMARK INTER:                 -14.202
REMARK INTRA:                  -1.801
REMARK UNBOUND:                -2.283
REMARK  Name = 
REMARK  13 active torsions:
REMARK  status: ('A' for Active; 'I' for Inactive)
REMARK    1  A    between atoms: C_1  and  O_2
REMARK    2  A    between atoms: O_2  and  C_3
REMARK    3  A    between atoms: C_9  and  N_10
REMARK    4  A    between atoms: N_10  and  C_11
REMARK    5  A    between atoms: C_14  and  O_15
REMARK    6  A    between atoms: O_15  and  C_16
REMARK    7  A    between atoms: C_16  and  C_17
REMARK    8  A    between atoms: C_29  and  N_30
REMARK    9  A    between atoms: C_31  and  C_33
REMARK   10  A    between atoms: C_35  and  C_36
REMARK   11  A    between atoms: C_36  and  N_37
REMARK   12  A    between atoms: N_37  and  C_38
REMARK   13  A    between atoms: N_37  and  C_39
REMARK                            x       y       z     vdW  Elec       q    Type
REMARK                         _______ _______ _______ _____ _____    ______ ____
ROOT
ATOM      1  C   UNL     1      18.471   4.581  49.652  0.00  0.00    +0.000 A 
ATOM      2  C   UNL     1      18.796   5.870  49.182  0.00  0.00    +0.000 A 
ATOM      3  C   UNL     1      19.979   6.515  49.522  0.00  0.00    +0.000 A 
ATOM      4  N   UNL     1      20.244   7.727  49.024  0.00  0.00    +0.000 NA
ATOM      5  C   UNL     1      21.403   8.286  49.395  0.00  0.00    +0.000 A 
ATOM      6  N   UNL     1      22.297   7.764  50.240  0.00  0.00    +0.000 NA
ATOM      7  C   UNL     1      22.016   6.552  50.749  0.00  0.00    +0.000 A 
ATOM      8  C   UNL     1      20.863   5.852  50.373  0.00  0.00    +0.000 A 
ATOM      9  C   UNL     1      20.560   4.545  50.793  0.00  0.00    +0.000 A 
ATOM     10  C   UNL     1      19.347   3.922  50.522  0.00  0.00    +0.000 A 
ENDROOT
BRANCH  10  11
ATOM     11  N   UNL     1      19.030   2.663  51.110  0.00  0.00    +0.000 N 
ATOM     12  C   UNL     1      19.711   1.481  50.828  0.00  0.00    +0.000 C 
ATOM     13  O   UNL     1      20.668   1.382  50.063  0.00  0.00    +0.000 OA
ATOM     14  H   UNL     1      18.286   2.626  51.752  0.00  0.00    +0.000 HD
BRANCH  12  15
ATOM     15  C   UNL     1      19.236   0.280  51.575  0.00  0.00    +0.000 C 
ATOM     16  F   UNL     1      18.311  -0.467  50.934  0.00  0.00    +0.000 F 
ATOM     17  C   UNL     1      19.646  -0.080  52.803  0.00  0.00    +0.000 C 
BRANCH  17  18
ATOM     18  C   UNL     1      20.686   0.603  53.662  0.00  0.00    +0.000 C 
BRANCH  18  19
ATOM     19  N   UNL     1      21.772  -0.305  54.089  0.00  0.00    +0.000 N 
ATOM     20  C   UNL     1      21.242  -1.594  54.549  0.00  0.00    +0.000 C 
ATOM     21  C   UNL     1      22.683  -0.544  52.958  0.00  0.00    +0.000 C 
ATOM     22  H   UNL     1      22.268   0.139  54.863  0.00  0.00    +0.000 HD
ENDBRANCH  18  19
ENDBRANCH  17  18
ENDBRANCH  12  15
ENDBRANCH  10  11
BRANCH   1  24
ATOM     23  C   UNL     1      16.161   4.381  50.047  0.00  0.00    +0.000 C 
ATOM     24  O   UNL     1      17.307   3.935  49.313  0.00  0.00    +0.000 OA
ENDBRANCH   1  24
BRANCH   7  25
ATOM     25  N   UNL     1      22.845   6.041  51.783  0.00  0.00    +0.000 N 
ATOM     26  H   UNL     1      22.825   6.525  52.641  0.00  0.00    +0.000 HD
BRANCH  25  27
ATOM     27  C   UNL     1      23.690   4.919  51.714  0.00  0.00    +0.000 A 
ATOM     28  C   UNL     1      23.681   3.941  52.704  0.00  0.00    +0.000 A 
ATOM     29  C   UNL     1      24.562   2.872  52.647  0.00  0.00    +0.000 A 
ATOM     30  C   UNL     1      25.452   2.737  51.580  0.00  0.00    +0.000 A 
ATOM     31  C   UNL     1      25.510   3.745  50.609  0.00  0.00    +0.000 A 
ATOM     32 CL   UNL     1      26.654   3.701  49.320  0.00  0.00    +0.000 Cl
ATOM     33  C   UNL     1      24.623   4.828  50.673  0.00  0.00    +0.000 A 
BRANCH  30  34
ATOM     34  O   UNL     1      26.282   1.648  51.445  0.00  0.00    +0.000 OA
BRANCH  34  35
ATOM     35  C   UNL     1      26.087   0.650  52.452  0.00  0.00    +0.000 C 
BRANCH  35  36
ATOM     36  C   UNL     1      27.387   0.144  53.021  0.00  0.00    +0.000 A 
ATOM     37  C   UNL     1      28.392   1.023  53.449  0.00  0.00    +0.000 A 
ATOM     38  C   UNL     1      29.643   0.533  53.829  0.00  0.00    +0.000 A 
ATOM     39  C   UNL     1      29.902  -0.835  53.780  0.00  0.00    +0.000 A 
ATOM     40  C   UNL     1      28.902  -1.707  53.368  0.00  0.00    +0.000 A 
ATOM     41  F   UNL     1      29.151  -3.021  53.313  0.00  0.00    +0.000 F 
ATOM     42  C   UNL     1      27.654  -1.233  52.986  0.00  0.00    +0.000 A 
ENDBRANCH  35  36
ENDBRANCH  34  35
ENDBRANCH  30  34
ENDBRANCH  25  27
ENDBRANCH   7  25
TORSDOF 10
ENDMDL
MODEL 5
REMARK VINA RESULT:    -8.647      3.420      5.900
REMARK INTER + INTRA:         -15.984
REMARK INTER:                 -14.458
REMARK INTRA:                  -1.526
REMARK UNBOUND:                -2.283
REMARK  Name = 
REMARK  13 active torsions:
REMARK  status: ('A' for Active; 'I' for Inactive)
REMARK    1  A    between atoms: C_1  and  O_2
REMARK    2  A    between atoms: O_2  and  C_3
REMARK    3  A    between atoms: C_9  and  N_10
REMARK    4  A    between atoms: N_10  and  C_11
REMARK    5  A    between atoms: C_14  and  O_15
REMARK    6  A    between atoms: O_15  and  C_16
REMARK    7  A    between atoms: C_16  and  C_17
REMARK    8  A    between atoms: C_29  and  N_30
REMARK    9  A    between atoms: C_31  and  C_33
REMARK   10  A    between atoms: C_35  and  C_36
REMARK   11  A    between atoms: C_36  and  N_37
REMARK   12  A    between atoms: N_37  and  C_38
REMARK   13  A    between atoms: N_37  and  C_39
REMARK                            x       y       z     vdW  Elec       q    Type
REMARK                         _______ _______ _______ _____ _____    ______ ____
ROOT
ATOM      1  C   UNL     1      23.310  -0.317  53.402  0.00  0.00    +0.000 A 
ATOM      2  C   UNL     1      24.616  -0.094  53.882  0.00  0.00    +0.000 A 
ATOM      3  C   UNL     1      25.495   0.797  53.278  0.00  0.00    +0.000 A 
ATOM      4  N   UNL     1      26.714   0.985  53.794  0.00  0.00    +0.000 NA
ATOM      5  C   UNL     1      27.505   1.860  53.158  0.00  0.00    +0.000 A 
ATOM      6  N   UNL     1      27.204   2.530  52.043  0.00  0.00    +0.000 NA
ATOM      7  C   UNL     1      25.982   2.325  51.521  0.00  0.00    +0.000 A 
ATOM      8  C   UNL     1      25.054   1.482  52.145  0.00  0.00    +0.000 A 
ATOM      9  C   UNL     1      23.732   1.299  51.705  0.00  0.00    +0.000 A 
ATOM     10  C   UNL     1      22.872   0.354  52.254  0.00  0.00    +0.000 A 
ENDROOT
BRANCH  10  11
ATOM     11  N   UNL     1      21.601   0.099  51.663  0.00  0.00    +0.000 N 
ATOM     12  C   UNL     1      20.434   0.779  52.005  0.00  0.00    +0.000 C 
ATOM     13  O   UNL     1      20.361   1.684  52.833  0.00  0.00    +0.000 OA
ATOM     14  H   UNL     1      21.544  -0.599  50.973  0.00  0.00    +0.000 HD
BRANCH  12  15
ATOM     15  C   UNL     1      19.216   0.376  51.243  0.00  0.00    +0.000 C 
ATOM     16  F   UNL     1      19.200   0.749  49.946  0.00  0.00    +0.000 F 
ATOM     17  C   UNL     1      18.171  -0.297  51.754  0.00  0.00    +0.000 C 
BRANCH  17  18
ATOM     18  C   UNL     1      18.016  -0.823  53.163  0.00  0.00    +0.000 C 
BRANCH  18  19
ATOM     19  N   UNL     1      16.871  -1.746  53.314  0.00  0.00    +0.000 N 
ATOM     20  C   UNL     1      15.975  -1.683  52.153  0.00  0.00    +0.000 C 
ATOM     21  C   UNL     1      17.369  -3.125  53.453  0.00  0.00    +0.000 C 
ATOM     22  H   UNL     1      16.349  -1.467  54.145  0.00  0.00    +0.000 HD
ENDBRANCH  18  19
ENDBRANCH  17  18
ENDBRANCH  12  15
ENDBRANCH  10  11
BRANCH   1  24
ATOM     23  C   UNL     1      22.787  -1.537  55.343  0.00  0.00    +0.000 C 
ATOM     24  O   UNL     1      22.434  -1.191  53.999  0.00  0.00    +0.000 OA
ENDBRANCH   1  24
BRANCH   7  25
ATOM     25  N   UNL     1      25.687   2.875  50.246  0.00  0.00    +0.000 N 
ATOM     26  H   UNL     1      25.242   2.277  49.602  0.00  0.00    +0.000 HD
BRANCH  25  27
ATOM     27  C   UNL     1      25.962   4.181  49.803  0.00  0.00    +0.000 A 
ATOM     28  C   UNL     1      27.049   4.456  48.978  0.00  0.00    +0.000 A 
ATOM     29  C   UNL     1      27.336   5.758  48.599  0.00  0.00    +0.000 A 
ATOM     30  C   UNL     1      26.524   6.816  49.011  0.00  0.00    +0.000 A 
ATOM     31  C   UNL     1      25.463   6.560  49.889  0.00  0.00    +0.000 A 
ATOM     32 CL   UNL     1      24.482   7.827  50.523  0.00  0.00    +0.000 Cl
ATOM     33  C   UNL     1      25.179   5.243  50.275  0.00  0.00    +0.000 A 
BRANCH  30  34
ATOM     34  O   UNL     1      26.728   8.110  48.588  0.00  0.00    +0.000 OA
BRANCH  34  35
ATOM     35  C   UNL     1      27.612   8.856  49.431  0.00  0.00    +0.000 C 
BRANCH  35  36
ATOM     36  C   UNL     1      28.936   9.138  48.770  0.00  0.00    +0.000 A 
ATOM     37  C   UNL     1      29.987   9.754  49.463  0.00  0.00    +0.000 A 
ATOM     38  C   UNL     1      31.146  10.142  48.790  0.00  0.00    +0.000 A 
ATOM     39  C   UNL     1      31.264   9.921  47.418  0.00  0.00    +0.000 A 
ATOM     40  C   UNL     1      30.228   9.300  46.733  0.00  0.00    +0.000 A 
ATOM     41  F   UNL     1      30.336   9.094  45.415  0.00  0.00    +0.000 F 
ATOM     42  C   UNL     1      29.069   8.911  47.391  0.00  0.00    +0.000 A 
ENDBRANCH  35  36
ENDBRANCH  34  35
ENDBRANCH  30  34
ENDBRANCH  25  27
ENDBRANCH   7  25
TORSDOF 10
ENDMDL
MODEL 6
REMARK VINA RESULT:    -8.599      3.775      6.288
REMARK INTER + INTRA:         -15.908
REMARK INTER:                 -14.104
REMARK INTRA:                  -1.804
REMARK UNBOUND:                -2.283
REMARK  Name = 
REMARK  13 active torsions:
REMARK  status: ('A' for Active; 'I' for Inactive)
REMARK    1  A    between atoms: C_1  and  O_2
REMARK    2  A    between atoms: O_2  and  C_3
REMARK    3  A    between atoms: C_9  and  N_10
REMARK    4  A    between atoms: N_10  and  C_11
REMARK    5  A    between atoms: C_14  and  O_15
REMARK    6  A    between atoms: O_15  and  C_16
REMARK    7  A    between atoms: C_16  and  C_17
REMARK    8  A    between atoms: C_29  and  N_30
REMARK    9  A    between atoms: C_31  and  C_33
REMARK   10  A    between atoms: C_35  and  C_36
REMARK   11  A    between atoms: C_36  and  N_37
REMARK   12  A    between atoms: N_37  and  C_38
REMARK   13  A    between atoms: N_37  and  C_39
REMARK                            x       y       z     vdW  Elec       q    Type
REMARK                         _______ _______ _______ _____ _____    ______ ____
ROOT
ATOM      1  C   UNL     1      23.310  -0.420  53.270  0.00  0.00    +0.000 A 
ATOM      2  C   UNL     1      24.628  -0.225  53.731  0.00  0.00    +0.000 A 
ATOM      3  C   UNL     1      25.490   0.707  53.165  0.00  0.00    +0.000 A 
ATOM      4  N   UNL     1      26.721   0.864  53.662  0.00  0.00    +0.000 NA
ATOM      5  C   UNL     1      27.494   1.781  53.066  0.00  0.00    +0.000 A 
ATOM      6  N   UNL     1      27.164   2.522  52.005  0.00  0.00    +0.000 NA
ATOM      7  C   UNL     1      25.930   2.348  51.501  0.00  0.00    +0.000 A 
ATOM      8  C   UNL     1      25.020   1.462  52.091  0.00  0.00    +0.000 A 
ATOM      9  C   UNL     1      23.687   1.305  51.673  0.00  0.00    +0.000 A 
ATOM     10  C   UNL     1      22.842   0.323  52.181  0.00  0.00    +0.000 A 
ENDROOT
BRANCH  10  11
ATOM     11  N   UNL     1      21.558   0.104  51.606  0.00  0.00    +0.000 N 
ATOM     12  C   UNL     1      20.404   0.779  52.000  0.00  0.00    +0.000 C 
ATOM     13  O   UNL     1      20.356   1.649  52.866  0.00  0.00    +0.000 OA
ATOM     14  H   UNL     1      21.480  -0.565  50.889  0.00  0.00    +0.000 HD
BRANCH  12  15
ATOM     15  C   UNL     1      19.167   0.417  51.248  0.00  0.00    +0.000 C 
ATOM     16  F   UNL     1      19.109   0.882  49.981  0.00  0.00    +0.000 F 
ATOM     17  C   UNL     1      18.143  -0.301  51.740  0.00  0.00    +0.000 C 
BRANCH  17  18
ATOM     18  C   UNL     1      18.036  -0.928  53.111  0.00  0.00    +0.000 C 
BRANCH  18  19
ATOM     19  N   UNL     1      16.830  -1.769  53.272  0.00  0.00    +0.000 N 
ATOM     20  C   UNL     1      15.940  -1.654  52.111  0.00  0.00    +0.000 C 
ATOM     21  C   UNL     1      17.233  -3.177  53.421  0.00  0.00    +0.000 C 
ATOM     22  H   UNL     1      16.330  -1.448  54.100  0.00  0.00    +0.000 HD
ENDBRANCH  18  19
ENDBRANCH  17  18
ENDBRANCH  12  15
ENDBRANCH  10  11
BRANCH   1  24
ATOM     23  C   UNL     1      21.795  -0.864  55.014  0.00  0.00    +0.000 C 
ATOM     24  O   UNL     1      22.451  -1.334  53.831  0.00  0.00    +0.000 OA
ENDBRANCH   1  24
BRANCH   7  25
ATOM     25  N   UNL     1      25.602   2.979  50.272  0.00  0.00    +0.000 N 
ATOM     26  H   UNL     1      25.146   2.422  49.600  0.00  0.00    +0.000 HD
BRANCH  25  27
ATOM     27  C   UNL     1      25.860   4.314  49.912  0.00  0.00    +0.000 A 
ATOM     28  C   UNL     1      24.972   5.338  50.230  0.00  0.00    +0.000 A 
ATOM     29  C   UNL     1      25.216   6.638  49.817  0.00  0.00    +0.000 A 
ATOM     30  C   UNL     1      26.372   6.954  49.101  0.00  0.00    +0.000 A 
ATOM     31  C   UNL     1      27.243   5.923  48.724  0.00  0.00    +0.000 A 
ATOM     32 CL   UNL     1      28.635   6.220  47.751  0.00  0.00    +0.000 Cl
ATOM     33  C   UNL     1      26.990   4.608  49.138  0.00  0.00    +0.000 A 
BRANCH  30  34
ATOM     34  O   UNL     1      26.690   8.244  48.745  0.00  0.00    +0.000 OA
BRANCH  34  35
ATOM     35  C   UNL     1      25.712   8.866  47.907  0.00  0.00    +0.000 C 
BRANCH  35  36
ATOM     36  C   UNL     1      25.966   8.617  46.443  0.00  0.00    +0.000 A 
ATOM     37  C   UNL     1      27.204   8.906  45.854  0.00  0.00    +0.000 A 
ATOM     38  C   UNL     1      27.368   8.809  44.470  0.00  0.00    +0.000 A 
ATOM     39  C   UNL     1      26.295   8.427  43.665  0.00  0.00    +0.000 A 
ATOM     40  C   UNL     1      25.072   8.128  44.251  0.00  0.00    +0.000 A 
ATOM     41  F   UNL     1      24.039   7.769  43.479  0.00  0.00    +0.000 F 
ATOM     42  C   UNL     1      24.896   8.222  45.626  0.00  0.00    +0.000 A 
ENDBRANCH  35  36
ENDBRANCH  34  35
ENDBRANCH  30  34
ENDBRANCH  25  27
ENDBRANCH   7  25
TORSDOF 10
ENDMDL
MODEL 7
REMARK VINA RESULT:    -8.492      5.722     10.560
REMARK INTER + INTRA:         -15.738
REMARK INTER:                 -13.851
REMARK INTRA:                  -1.887
REMARK UNBOUND:                -2.283
REMARK  Name = 
REMARK  13 active torsions:
REMARK  status: ('A' for Active; 'I' for Inactive)
REMARK    1  A    between atoms: C_1  and  O_2
REMARK    2  A    between atoms: O_2  and  C_3
REMARK    3  A    between atoms: C_9  and  N_10
REMARK    4  A    between atoms: N_10  and  C_11
REMARK    5  A    between atoms: C_14  and  O_15
REMARK    6  A    between atoms: O_15  and  C_16
REMARK    7  A    between atoms: C_16  and  C_17
REMARK    8  A    between atoms: C_29  and  N_30
REMARK    9  A    between atoms: C_31  and  C_33
REMARK   10  A    between atoms: C_35  and  C_36
REMARK   11  A    between atoms: C_36  and  N_37
REMARK   12  A    between atoms: N_37  and  C_38
REMARK   13  A    between atoms: N_37  and  C_39
REMARK                            x       y       z     vdW  Elec       q    Type
REMARK                         _______ _______ _______ _____ _____    ______ ____
ROOT
ATOM      1  C   UNL     1      25.220   0.968  52.133  0.00  0.00    +0.000 A 
ATOM      2  C   UNL     1      25.206   0.038  53.192  0.00  0.00    +0.000 A 
ATOM      3  C   UNL     1      24.035  -0.357  53.828  0.00  0.00    +0.000 A 
ATOM      4  N   UNL     1      24.082  -1.262  54.810  0.00  0.00    +0.000 NA
ATOM      5  C   UNL     1      22.914  -1.594  55.376  0.00  0.00    +0.000 A 
ATOM      6  N   UNL     1      21.719  -1.081  55.075  0.00  0.00    +0.000 NA
ATOM      7  C   UNL     1      21.680  -0.159  54.097  0.00  0.00    +0.000 A 
ATOM      8  C   UNL     1      22.836   0.209  53.396  0.00  0.00    +0.000 A 
ATOM      9  C   UNL     1      22.848   1.092  52.303  0.00  0.00    +0.000 A 
ATOM     10  C   UNL     1      24.020   1.552  51.711  0.00  0.00    +0.000 A 
ENDROOT
BRANCH  10  11
ATOM     11  N   UNL     1      23.978   2.570  50.715  0.00  0.00    +0.000 N 
ATOM     12  C   UNL     1      24.124   3.929  50.986  0.00  0.00    +0.000 C 
ATOM     13  O   UNL     1      24.324   4.409  52.099  0.00  0.00    +0.000 OA
ATOM     14  H   UNL     1      23.837   2.297  49.781  0.00  0.00    +0.000 HD
BRANCH  12  15
ATOM     15  C   UNL     1      24.077   4.824  49.793  0.00  0.00    +0.000 C 
ATOM     16  F   UNL     1      22.855   5.312  49.489  0.00  0.00    +0.000 F 
ATOM     17  C   UNL     1      25.132   5.148  49.027  0.00  0.00    +0.000 C 
BRANCH  17  18
ATOM     18  C   UNL     1      26.572   4.732  49.220  0.00  0.00    +0.000 C 
BRANCH  18  19
ATOM     19  N   UNL     1      27.520   5.864  49.138  0.00  0.00    +0.000 N 
ATOM     20  C   UNL     1      28.670   5.538  48.287  0.00  0.00    +0.000 C 
ATOM     21  C   UNL     1      26.832   7.037  48.575  0.00  0.00    +0.000 C 
ATOM     22  H   UNL     1      27.857   6.061  50.080  0.00  0.00    +0.000 HD
ENDBRANCH  18  19
ENDBRANCH  17  18
ENDBRANCH  12  15
ENDBRANCH  10  11
BRANCH   1  24
ATOM     23  C   UNL     1      27.405   1.801  52.382  0.00  0.00    +0.000 C 
ATOM     24  O   UNL     1      26.373   1.356  51.495  0.00  0.00    +0.000 OA
ENDBRANCH   1  24
BRANCH   7  25
ATOM     25  N   UNL     1      20.465   0.540  53.869  0.00  0.00    +0.000 N 
ATOM     26  H   UNL     1      20.325   1.359  54.398  0.00  0.00    +0.000 HD
BRANCH  25  27
ATOM     27  C   UNL     1      19.442   0.189  52.970  0.00  0.00    +0.000 A 
ATOM     28  C   UNL     1      19.203   0.928  51.816  0.00  0.00    +0.000 A 
ATOM     29  C   UNL     1      18.154   0.599  50.973  0.00  0.00    +0.000 A 
ATOM     30  C   UNL     1      17.336  -0.499  51.245  0.00  0.00    +0.000 A 
ATOM     31  C   UNL     1      17.530  -1.215  52.434  0.00  0.00    +0.000 A 
ATOM     32 CL   UNL     1      16.496  -2.516  52.890  0.00  0.00    +0.000 Cl
ATOM     33  C   UNL     1      18.588  -0.875  53.288  0.00  0.00    +0.000 A 
BRANCH  30  34
ATOM     34  O   UNL     1      16.338  -0.906  50.390  0.00  0.00    +0.000 OA
BRANCH  34  35
ATOM     35  C   UNL     1      15.322   0.081  50.182  0.00  0.00    +0.000 C 
BRANCH  35  36
ATOM     36  C   UNL     1      14.607   0.447  51.455  0.00  0.00    +0.000 A 
ATOM     37  C   UNL     1      13.706  -0.433  52.070  0.00  0.00    +0.000 A 
ATOM     38  C   UNL     1      12.943  -0.015  53.162  0.00  0.00    +0.000 A 
ATOM     39  C   UNL     1      13.071   1.287  53.645  0.00  0.00    +0.000 A 
ATOM     40  C   UNL     1      13.973   2.155  53.044  0.00  0.00    +0.000 A 
ATOM     41  F   UNL     1      14.091   3.407  53.502  0.00  0.00    +0.000 F 
ATOM     42  C   UNL     1      14.736   1.751  51.956  0.00  0.00    +0.000 A 
ENDBRANCH  35  36
ENDBRANCH  34  35
ENDBRANCH  30  34
ENDBRANCH  25  27
ENDBRANCH   7  25
TORSDOF 10
ENDMDL
MODEL 8
REMARK VINA RESULT:    -8.479      3.543      6.459
REMARK INTER + INTRA:         -15.719
REMARK INTER:                 -13.289
REMARK INTRA:                  -2.429
REMARK UNBOUND:                -2.283
REMARK  Name = 
REMARK  13 active torsions:
REMARK  status: ('A' for Active; 'I' for Inactive)
REMARK    1  A    between atoms: C_1  and  O_2
REMARK    2  A    between atoms: O_2  and  C_3
REMARK    3  A    between atoms: C_9  and  N_10
REMARK    4  A    between atoms: N_10  and  C_11
REMARK    5  A    between atoms: C_14  and  O_15
REMARK    6  A    between atoms: O_15  and  C_16
REMARK    7  A    between atoms: C_16  and  C_17
REMARK    8  A    between atoms: C_29  and  N_30
REMARK    9  A    between atoms: C_31  and  C_33
REMARK   10  A    between atoms: C_35  and  C_36
REMARK   11  A    between atoms: C_36  and  N_37
REMARK   12  A    between atoms: N_37  and  C_38
REMARK   13  A    between atoms: N_37  and  C_39
REMARK                            x       y       z     vdW  Elec       q    Type
REMARK                         _______ _______ _______ _____ _____    ______ ____
ROOT
ATOM      1  C   UNL     1      23.338  -0.200  53.372  0.00  0.00    +0.000 A 
ATOM      2  C   UNL     1      24.641  -0.012  53.877  0.00  0.00    +0.000 A 
ATOM      3  C   UNL     1      25.558   0.848  53.285  0.00  0.00    +0.000 A 
ATOM      4  N   UNL     1      26.771   1.004  53.824  0.00  0.00    +0.000 NA
ATOM      5  C   UNL     1      27.600   1.850  53.200  0.00  0.00    +0.000 A 
ATOM      6  N   UNL     1      27.342   2.521  52.074  0.00  0.00    +0.000 NA
ATOM      7  C   UNL     1      26.125   2.348  51.528  0.00  0.00    +0.000 A 
ATOM      8  C   UNL     1      25.160   1.537  52.139  0.00  0.00    +0.000 A 
ATOM      9  C   UNL     1      23.842   1.390  51.673  0.00  0.00    +0.000 A 
ATOM     10  C   UNL     1      22.944   0.475  52.211  0.00  0.00    +0.000 A 
ENDROOT
BRANCH  10  11
ATOM     11  N   UNL     1      21.678   0.253  51.596  0.00  0.00    +0.000 N 
ATOM     12  C   UNL     1      20.517   0.945  51.936  0.00  0.00    +0.000 C 
ATOM     13  O   UNL     1      20.446   1.832  52.782  0.00  0.00    +0.000 OA
ATOM     14  H   UNL     1      21.620  -0.429  50.890  0.00  0.00    +0.000 HD
BRANCH  12  15
ATOM     15  C   UNL     1      19.304   0.577  51.147  0.00  0.00    +0.000 C 
ATOM     16  F   UNL     1      18.619  -0.490  51.611  0.00  0.00    +0.000 F 
ATOM     17  C   UNL     1      18.879   1.210  50.040  0.00  0.00    +0.000 C 
BRANCH  17  18
ATOM     18  C   UNL     1      19.488   2.431  49.388  0.00  0.00    +0.000 C 
BRANCH  18  19
ATOM     19  N   UNL     1      20.140   2.133  48.096  0.00  0.00    +0.000 N 
ATOM     20  C   UNL     1      20.037   3.267  47.171  0.00  0.00    +0.000 C 
ATOM     21  C   UNL     1      21.564   1.836  48.323  0.00  0.00    +0.000 C 
ATOM     22  H   UNL     1      19.667   1.330  47.682  0.00  0.00    +0.000 HD
ENDBRANCH  18  19
ENDBRANCH  17  18
ENDBRANCH  12  15
ENDBRANCH  10  11
BRANCH   1  24
ATOM     23  C   UNL     1      22.845  -1.564  55.223  0.00  0.00    +0.000 C 
ATOM     24  O   UNL     1      22.425  -1.043  53.958  0.00  0.00    +0.000 OA
ENDBRANCH   1  24
BRANCH   7  25
ATOM     25  N   UNL     1      25.873   2.897  50.243  0.00  0.00    +0.000 N 
ATOM     26  H   UNL     1      25.607   2.261  49.539  0.00  0.00    +0.000 HD
BRANCH  25  27
ATOM     27  C   UNL     1      25.961   4.249  49.868  0.00  0.00    +0.000 A 
ATOM     28  C   UNL     1      26.932   4.695  48.977  0.00  0.00    +0.000 A 
ATOM     29  C   UNL     1      27.039   6.041  48.664  0.00  0.00    +0.000 A 
ATOM     30  C   UNL     1      26.156   6.973  49.211  0.00  0.00    +0.000 A 
ATOM     31  C   UNL     1      25.212   6.545  50.155  0.00  0.00    +0.000 A 
ATOM     32 CL   UNL     1      24.157   7.652  50.951  0.00  0.00    +0.000 Cl
ATOM     33  C   UNL     1      25.111   5.184  50.473  0.00  0.00    +0.000 A 
BRANCH  30  34
ATOM     34  O   UNL     1      26.177   8.303  48.861  0.00  0.00    +0.000 OA
BRANCH  34  35
ATOM     35  C   UNL     1      25.734   8.551  47.523  0.00  0.00    +0.000 C 
BRANCH  35  36
ATOM     36  C   UNL     1      24.240   8.426  47.379  0.00  0.00    +0.000 A 
ATOM     37  C   UNL     1      23.366   9.359  47.955  0.00  0.00    +0.000 A 
ATOM     38  C   UNL     1      21.988   9.141  47.937  0.00  0.00    +0.000 A 
ATOM     39  C   UNL     1      21.471   7.988  47.348  0.00  0.00    +0.000 A 
ATOM     40  C   UNL     1      22.335   7.069  46.766  0.00  0.00    +0.000 A 
ATOM     41  F   UNL     1      21.842   5.958  46.208  0.00  0.00    +0.000 F 
ATOM     42  C   UNL     1      23.709   7.274  46.779  0.00  0.00    +0.000 A 
ENDBRANCH  35  36
ENDBRANCH  34  35
ENDBRANCH  30  34
ENDBRANCH  25  27
ENDBRANCH   7  25
TORSDOF 10
ENDMDL
MODEL 9
REMARK VINA RESULT:    -8.338      3.453      6.348
REMARK INTER + INTRA:         -15.496
REMARK INTER:                 -13.150
REMARK INTRA:                  -2.346
REMARK UNBOUND:                -2.283
REMARK  Name = 
REMARK  13 active torsions:
REMARK  status: ('A' for Active; 'I' for Inactive)
REMARK    1  A    between atoms: C_1  and  O_2
REMARK    2  A    between atoms: O_2  and  C_3
REMARK    3  A    between atoms: C_9  and  N_10
REMARK    4  A    between atoms: N_10  and  C_11
REMARK    5  A    between atoms: C_14  and  O_15
REMARK    6  A    between atoms: O_15  and  C_16
REMARK    7  A    between atoms: C_16  and  C_17
REMARK    8  A    between atoms: C_29  and  N_30
REMARK    9  A    between atoms: C_31  and  C_33
REMARK   10  A    between atoms: C_35  and  C_36
REMARK   11  A    between atoms: C_36  and  N_37
REMARK   12  A    between atoms: N_37  and  C_38
REMARK   13  A    between atoms: N_37  and  C_39
REMARK                            x       y       z     vdW  Elec       q    Type
REMARK                         _______ _______ _______ _____ _____    ______ ____
ROOT
ATOM      1  C   UNL     1      23.330  -0.185  53.185  0.00  0.00    +0.000 A 
ATOM      2  C   UNL     1      24.622  -0.041  53.732  0.00  0.00    +0.000 A 
ATOM      3  C   UNL     1      25.577   0.809  53.187  0.00  0.00    +0.000 A 
ATOM      4  N   UNL     1      26.777   0.922  53.765  0.00  0.00    +0.000 NA
ATOM      5  C   UNL     1      27.644   1.761  53.184  0.00  0.00    +0.000 A 
ATOM      6  N   UNL     1      27.436   2.463  52.068  0.00  0.00    +0.000 NA
ATOM      7  C   UNL     1      26.232   2.333  51.483  0.00  0.00    +0.000 A 
ATOM      8  C   UNL     1      25.230   1.533  52.046  0.00  0.00    +0.000 A 
ATOM      9  C   UNL     1      23.924   1.429  51.539  0.00  0.00    +0.000 A 
ATOM     10  C   UNL     1      22.987   0.525  52.030  0.00  0.00    +0.000 A 
ENDROOT
BRANCH  10  11
ATOM     11  N   UNL     1      21.736   0.349  51.373  0.00  0.00    +0.000 N 
ATOM     12  C   UNL     1      20.565   1.008  51.742  0.00  0.00    +0.000 C 
ATOM     13  O   UNL     1      20.472   1.826  52.654  0.00  0.00    +0.000 OA
ATOM     14  H   UNL     1      21.695  -0.275  50.614  0.00  0.00    +0.000 HD
BRANCH  12  15
ATOM     15  C   UNL     1      19.370   0.700  50.902  0.00  0.00    +0.000 C 
ATOM     16  F   UNL     1      18.713  -0.433  51.231  0.00  0.00    +0.000 F 
ATOM     17  C   UNL     1      18.935   1.445  49.871  0.00  0.00    +0.000 C 
BRANCH  17  18
ATOM     18  C   UNL     1      19.513   2.751  49.373  0.00  0.00    +0.000 C 
BRANCH  18  19
ATOM     19  N   UNL     1      19.446   3.835  50.376  0.00  0.00    +0.000 N 
ATOM     20  C   UNL     1      20.666   4.650  50.363  0.00  0.00    +0.000 C 
ATOM     21  C   UNL     1      18.295   4.703  50.082  0.00  0.00    +0.000 C 
ATOM     22  H   UNL     1      19.349   3.406  51.296  0.00  0.00    +0.000 HD
ENDBRANCH  18  19
ENDBRANCH  17  18
ENDBRANCH  12  15
ENDBRANCH  10  11
BRANCH   1  24
ATOM     23  C   UNL     1      21.808  -0.532  54.944  0.00  0.00    +0.000 C 
ATOM     24  O   UNL     1      22.381  -1.018  53.725  0.00  0.00    +0.000 OA
ENDBRANCH   1  24
BRANCH   7  25
ATOM     25  N   UNL     1      26.031   2.917  50.204  0.00  0.00    +0.000 N 
ATOM     26  H   UNL     1      25.823   2.298  49.467  0.00  0.00    +0.000 HD
BRANCH  25  27
ATOM     27  C   UNL     1      26.098   4.283  49.877  0.00  0.00    +0.000 A 
ATOM     28  C   UNL     1      25.113   5.177  50.284  0.00  0.00    +0.000 A 
ATOM     29  C   UNL     1      25.167   6.509  49.904  0.00  0.00    +0.000 A 
ATOM     30  C   UNL     1      26.228   6.988  49.133  0.00  0.00    +0.000 A 
ATOM     31  C   UNL     1      27.195   6.086  48.669  0.00  0.00    +0.000 A 
ATOM     32 CL   UNL     1      28.475   6.583  47.627  0.00  0.00    +0.000 Cl
ATOM     33  C   UNL     1      27.132   4.739  49.050  0.00  0.00    +0.000 A 
BRANCH  30  34
ATOM     34  O   UNL     1      26.361   8.318  48.807  0.00  0.00    +0.000 OA
BRANCH  34  35
ATOM     35  C   UNL     1      25.212   8.865  48.153  0.00  0.00    +0.000 C 
BRANCH  35  36
ATOM     36  C   UNL     1      25.124   8.455  46.706  0.00  0.00    +0.000 A 
ATOM     37  C   UNL     1      26.103   8.828  45.776  0.00  0.00    +0.000 A 
ATOM     38  C   UNL     1      25.923   8.567  44.416  0.00  0.00    +0.000 A 
ATOM     39  C   UNL     1      24.762   7.934  43.975  0.00  0.00    +0.000 A 
ATOM     40  C   UNL     1      23.796   7.552  44.898  0.00  0.00    +0.000 A 
ATOM     41  F   UNL     1      22.678   6.952  44.476  0.00  0.00    +0.000 F 
ATOM     42  C   UNL     1      23.963   7.808  46.253  0.00  0.00    +0.000 A 
ENDBRANCH  35  36
ENDBRANCH  34  35
ENDBRANCH  30  34
ENDBRANCH  25  27
ENDBRANCH   7  25
TORSDOF 10
ENDMDL
