MODEL 1
REMARK VINA RESULT:   -10.174      0.000      0.000
REMARK INTER + INTRA:         -17.696
REMARK INTER:                 -16.122
REMARK INTRA:                  -1.574
REMARK UNBOUND:                -1.574
REMARK  Name = 
REMARK  12 active torsions:
REMARK  status: ('A' for Active; 'I' for Inactive)
REMARK    1  A    between atoms: C_1  and  O_2
REMARK    2  A    between atoms: O_2  and  C_3
REMARK    3  A    between atoms: C_6  and  N_7
REMARK    4  A    between atoms: N_7  and  C_8
REMARK    5  A    between atoms: C_11  and  N_12
REMARK    6  A    between atoms: C_13  and  C_15
REMARK    7  A    between atoms: C_15  and  C_16
REMARK    8  A    between atoms: C_15  and  N_24
REMARK    9  A    between atoms: C_42  and  O_43
REMARK   10  A    between atoms: O_43  and  C_44
REMARK   11  A    between atoms: C_44  and  C_45
REMARK   12  A    between atoms: N_48  and  C_49
REMARK                            x       y       z     vdW  Elec       q    Type
REMARK                         _______ _______ _______ _____ _____    ______ ____
ROOT
ATOM      1  C   UNL     1      23.092   7.756  50.018  0.00  0.00    +0.000 A 
ATOM      2  C   UNL     1      21.837   7.169  50.211  0.00  0.00    +0.000 A 
ATOM      3  C   UNL     1      21.693   6.042  51.017  0.00  0.00    +0.000 A 
ATOM      4  C   UNL     1      22.788   5.448  51.660  0.00  0.00    +0.000 A 
ATOM      5  C   UNL     1      24.046   6.027  51.469  0.00  0.00    +0.000 A 
ATOM      6  C   UNL     1      24.186   7.163  50.656  0.00  0.00    +0.000 A 
ATOM      7  F   UNL     1      25.427   7.605  50.392  0.00  0.00    +0.000 F 
ENDROOT
BRANCH   4   8
ATOM      8  N   UNL     1      22.669   4.267  52.443  0.00  0.00    +0.000 N 
ATOM      9  C   UNL     1      23.286   3.057  52.145  0.00  0.00    +0.000 C 
ATOM     10  O   UNL     1      23.895   2.846  51.093  0.00  0.00    +0.000 OA
ATOM     11  H   UNL     1      22.110   4.308  53.252  0.00  0.00    +0.000 HD
BRANCH   9  12
ATOM     12  C   UNL     1      23.079   1.875  53.147  0.00  0.00    +0.000 C 
BRANCH  12  13
ATOM     13  N   UNL     1      24.344   1.127  53.394  0.00  0.00    +0.000 N 
ATOM     14  C   UNL     1      24.567  -0.279  53.045  0.00  0.00    +0.000 C 
ATOM     15  C   UNL     1      26.050  -0.419  53.084  0.00  0.00    +0.000 A 
ATOM     16  C   UNL     1      26.823  -1.512  52.729  0.00  0.00    +0.000 A 
ATOM     17  C   UNL     1      28.209  -1.400  52.845  0.00  0.00    +0.000 A 
ATOM     18  C   UNL     1      28.792  -0.213  53.322  0.00  0.00    +0.000 A 
ATOM     19  C   UNL     1      27.999   0.891  53.662  0.00  0.00    +0.000 A 
ATOM     20  C   UNL     1      26.628   0.765  53.522  0.00  0.00    +0.000 A 
ATOM     21  C   UNL     1      25.551   1.762  53.683  0.00  0.00    +0.000 C 
ATOM     22  O   UNL     1      25.728   2.933  53.961  0.00  0.00    +0.000 OA
ENDBRANCH  12  13
BRANCH  12  23
ATOM     23  C   UNL     1      21.929   1.046  52.577  0.00  0.00    +0.000 A 
ATOM     24  C   UNL     1      21.511   1.129  51.242  0.00  0.00    +0.000 A 
ATOM     25  C   UNL     1      20.281   0.611  50.846  0.00  0.00    +0.000 A 
ATOM     26  F   UNL     1      19.881   0.775  49.578  0.00  0.00    +0.000 F 
ATOM     27  C   UNL     1      19.443  -0.022  51.753  0.00  0.00    +0.000 A 
ATOM     28  C   UNL     1      19.860  -0.166  53.074  0.00  0.00    +0.000 A 
ATOM     29  C   UNL     1      21.087   0.368  53.473  0.00  0.00    +0.000 A 
ATOM     30  F   UNL     1      21.422   0.296  54.771  0.00  0.00    +0.000 F 
ENDBRANCH  12  23
ENDBRANCH   9  12
ENDBRANCH   4   8
BRANCH   1  31
ATOM     31  N   UNL     1      23.174   8.707  48.978  0.00  0.00    +0.000 N 
ATOM     32  H   UNL     1      22.912   9.630  49.200  0.00  0.00    +0.000 HD
BRANCH  31  36
ATOM     33  C   UNL     1      27.228   9.427  47.825  0.00  0.00    +0.000 A 
ATOM     34  C   UNL     1      25.880   9.350  48.156  0.00  0.00    +0.000 A 
ATOM     35  C   UNL     1      24.933   8.740  47.299  0.00  0.00    +0.000 A 
ATOM     36  C   UNL     1      23.595   8.466  47.644  0.00  0.00    +0.000 A 
ATOM     37  N   UNL     1      22.767   7.812  46.812  0.00  0.00    +0.000 NA
ATOM     38  C   UNL     1      23.262   7.479  45.618  0.00  0.00    +0.000 A 
ATOM     39  N   UNL     1      24.499   7.733  45.173  0.00  0.00    +0.000 NA
ATOM     40  C   UNL     1      25.327   8.345  46.024  0.00  0.00    +0.000 A 
ATOM     41  C   UNL     1      26.639   8.578  45.638  0.00  0.00    +0.000 A 
ATOM     42  C   UNL     1      27.611   9.079  46.523  0.00  0.00    +0.000 A 
BRANCH  33  44
ATOM     43  C   UNL     1      27.961   9.510  50.111  0.00  0.00    +0.000 C 
ATOM     44  O   UNL     1      28.185   9.812  48.728  0.00  0.00    +0.000 OA
ENDBRANCH  33  44
BRANCH  42  45
ATOM     45  O   UNL     1      28.934   9.249  46.173  0.00  0.00    +0.000 OA
BRANCH  45  46
ATOM     46  C   UNL     1      29.681   8.040  45.993  0.00  0.00    +0.000 C 
BRANCH  46  47
ATOM     47  C   UNL     1      31.192   8.266  46.166  0.00  0.00    +0.000 C 
ATOM     48  C   UNL     1      31.949   6.928  46.119  0.00  0.00    +0.000 C 
ATOM     49  C   UNL     1      31.681   6.069  47.363  0.00  0.00    +0.000 C 
ATOM     50  N   UNL     1      31.971   6.799  48.603  0.00  0.00    +0.000 N 
ATOM     51  C   UNL     1      31.650   5.971  49.768  0.00  0.00    +0.000 C 
ATOM     52  C   UNL     1      31.261   8.084  48.691  0.00  0.00    +0.000 C 
ATOM     53  C   UNL     1      31.539   8.974  47.479  0.00  0.00    +0.000 C 
ATOM     54  H   UNL     1      32.970   7.008  48.592  0.00  0.00    +0.000 HD
ENDBRANCH  46  47
ENDBRANCH  45  46
ENDBRANCH  42  45
ENDBRANCH  31  36
ENDBRANCH   1  31
TORSDOF 10
ENDMDL
MODEL 2
REMARK VINA RESULT:    -9.940      3.682      6.795
REMARK INTER + INTRA:         -17.325
REMARK INTER:                 -15.852
REMARK INTRA:                  -1.473
REMARK UNBOUND:                -1.574
REMARK  Name = 
REMARK  12 active torsions:
REMARK  status: ('A' for Active; 'I' for Inactive)
REMARK    1  A    between atoms: C_1  and  O_2
REMARK    2  A    between atoms: O_2  and  C_3
REMARK    3  A    between atoms: C_6  and  N_7
REMARK    4  A    between atoms: N_7  and  C_8
REMARK    5  A    between atoms: C_11  and  N_12
REMARK    6  A    between atoms: C_13  and  C_15
REMARK    7  A    between atoms: C_15  and  C_16
REMARK    8  A    between atoms: C_15  and  N_24
REMARK    9  A    between atoms: C_42  and  O_43
REMARK   10  A    between atoms: O_43  and  C_44
REMARK   11  A    between atoms: C_44  and  C_45
REMARK   12  A    between atoms: N_48  and  C_49
REMARK                            x       y       z     vdW  Elec       q    Type
REMARK                         _______ _______ _______ _____ _____    ______ ____
ROOT
ATOM      1  C   UNL     1      24.839   6.438  49.122  0.00  0.00    +0.000 A 
ATOM      2  C   UNL     1      23.837   6.587  50.087  0.00  0.00    +0.000 A 
ATOM      3  C   UNL     1      23.714   5.679  51.135  0.00  0.00    +0.000 A 
ATOM      4  C   UNL     1      24.577   4.582  51.268  0.00  0.00    +0.000 A 
ATOM      5  C   UNL     1      25.579   4.423  50.306  0.00  0.00    +0.000 A 
ATOM      6  C   UNL     1      25.699   5.341  49.251  0.00  0.00    +0.000 A 
ATOM      7  F   UNL     1      26.586   5.077  48.277  0.00  0.00    +0.000 F 
ENDROOT
BRANCH   4   8
ATOM      8  N   UNL     1      24.434   3.615  52.300  0.00  0.00    +0.000 N 
ATOM      9  C   UNL     1      24.259   2.252  52.087  0.00  0.00    +0.000 C 
ATOM     10  O   UNL     1      24.075   1.757  50.972  0.00  0.00    +0.000 OA
ATOM     11  H   UNL     1      24.459   3.932  53.232  0.00  0.00    +0.000 HD
BRANCH   9  12
ATOM     12  C   UNL     1      24.166   1.330  53.346  0.00  0.00    +0.000 C 
BRANCH  12  13
ATOM     13  N   UNL     1      25.438   0.594  53.592  0.00  0.00    +0.000 N 
ATOM     14  C   UNL     1      25.692  -0.795  53.195  0.00  0.00    +0.000 C 
ATOM     15  C   UNL     1      27.175  -0.912  53.261  0.00  0.00    +0.000 A 
ATOM     16  C   UNL     1      27.974  -1.979  52.882  0.00  0.00    +0.000 A 
ATOM     17  C   UNL     1      29.356  -1.848  53.032  0.00  0.00    +0.000 A 
ATOM     18  C   UNL     1      29.908  -0.671  53.565  0.00  0.00    +0.000 A 
ATOM     19  C   UNL     1      29.089   0.406  53.930  0.00  0.00    +0.000 A 
ATOM     20  C   UNL     1      27.725   0.264  53.755  0.00  0.00    +0.000 A 
ATOM     21  C   UNL     1      26.627   1.237  53.931  0.00  0.00    +0.000 C 
ATOM     22  O   UNL     1      26.779   2.399  54.257  0.00  0.00    +0.000 OA
ENDBRANCH  12  13
BRANCH  12  23
ATOM     23  C   UNL     1      22.934   0.453  53.127  0.00  0.00    +0.000 A 
ATOM     24  C   UNL     1      22.064   0.611  52.040  0.00  0.00    +0.000 A 
ATOM     25  C   UNL     1      20.802   0.021  52.045  0.00  0.00    +0.000 A 
ATOM     26  F   UNL     1      19.969   0.254  51.023  0.00  0.00    +0.000 F 
ATOM     27  C   UNL     1      20.378  -0.757  53.112  0.00  0.00    +0.000 A 
ATOM     28  C   UNL     1      21.246  -0.974  54.179  0.00  0.00    +0.000 A 
ATOM     29  C   UNL     1      22.504  -0.369  54.181  0.00  0.00    +0.000 A 
ATOM     30  F   UNL     1      23.283  -0.520  55.263  0.00  0.00    +0.000 F 
ENDBRANCH  12  23
ENDBRANCH   9  12
ENDBRANCH   4   8
BRANCH   1  31
ATOM     31  N   UNL     1      24.706   7.235  47.965  0.00  0.00    +0.000 N 
ATOM     32  H   UNL     1      25.534   7.451  47.479  0.00  0.00    +0.000 HD
BRANCH  31  36
ATOM     33  C   UNL     1      21.477   4.621  46.953  0.00  0.00    +0.000 A 
ATOM     34  C   UNL     1      22.580   5.450  47.126  0.00  0.00    +0.000 A 
ATOM     35  C   UNL     1      22.468   6.860  47.091  0.00  0.00    +0.000 A 
ATOM     36  C   UNL     1      23.498   7.758  47.434  0.00  0.00    +0.000 A 
ATOM     37  N   UNL     1      23.303   9.087  47.455  0.00  0.00    +0.000 NA
ATOM     38  C   UNL     1      22.097   9.520  47.083  0.00  0.00    +0.000 A 
ATOM     39  N   UNL     1      21.066   8.758  46.693  0.00  0.00    +0.000 NA
ATOM     40  C   UNL     1      21.257   7.436  46.718  0.00  0.00    +0.000 A 
ATOM     41  C   UNL     1      20.204   6.597  46.383  0.00  0.00    +0.000 A 
ATOM     42  C   UNL     1      20.275   5.199  46.525  0.00  0.00    +0.000 A 
BRANCH  33  44
ATOM     43  C   UNL     1      22.589   2.782  48.026  0.00  0.00    +0.000 C 
ATOM     44  O   UNL     1      21.525   3.273  47.200  0.00  0.00    +0.000 OA
ENDBRANCH  33  44
BRANCH  42  45
ATOM     45  O   UNL     1      19.213   4.359  46.264  0.00  0.00    +0.000 OA
BRANCH  45  46
ATOM     46  C   UNL     1      18.207   4.307  47.282  0.00  0.00    +0.000 C 
BRANCH  46  47
ATOM     47  C   UNL     1      18.210   2.959  48.025  0.00  0.00    +0.000 C 
ATOM     48  C   UNL     1      16.773   2.515  48.347  0.00  0.00    +0.000 C 
ATOM     49  C   UNL     1      16.126   3.394  49.426  0.00  0.00    +0.000 C 
ATOM     50  N   UNL     1      16.946   3.458  50.642  0.00  0.00    +0.000 N 
ATOM     51  C   UNL     1      16.328   4.349  51.627  0.00  0.00    +0.000 C 
ATOM     52  C   UNL     1      18.328   3.886  50.378  0.00  0.00    +0.000 C 
ATOM     53  C   UNL     1      19.009   3.004  49.331  0.00  0.00    +0.000 C 
ATOM     54  H   UNL     1      16.991   2.509  51.014  0.00  0.00    +0.000 HD
ENDBRANCH  46  47
ENDBRANCH  45  46
ENDBRANCH  42  45
ENDBRANCH  31  36
ENDBRANCH   1  31
TORSDOF 10
ENDMDL
MODEL 3
REMARK VINA RESULT:    -9.902      4.392      7.898
REMARK INTER + INTRA:         -17.265
REMARK INTER:                 -15.547
REMARK INTRA:                  -1.718
REMARK UNBOUND:                -1.574
REMARK  Name = 
REMARK  12 active torsions:
REMARK  status: ('A' for Active; 'I' for Inactive)
REMARK    1  A    between atoms: C_1  and  O_2
REMARK    2  A    between atoms: O_2  and  C_3
REMARK    3  A    between atoms: C_6  and  N_7
REMARK    4  A    between atoms: N_7  and  C_8
REMARK    5  A    between atoms: C_11  and  N_12
REMARK    6  A    between atoms: C_13  and  C_15
REMARK    7  A    between atoms: C_15  and  C_16
REMARK    8  A    between atoms: C_15  and  N_24
REMARK    9  A    between atoms: C_42  and  O_43
REMARK   10  A    between atoms: O_43  and  C_44
REMARK   11  A    between atoms: C_44  and  C_45
REMARK   12  A    between atoms: N_48  and  C_49
REMARK                            x       y       z     vdW  Elec       q    Type
REMARK                         _______ _______ _______ _____ _____    ______ ____
ROOT
ATOM      1  C   UNL     1      21.883   2.354  52.183  0.00  0.00    +0.000 A 
ATOM      2  C   UNL     1      21.684   0.976  52.315  0.00  0.00    +0.000 A 
ATOM      3  C   UNL     1      20.405   0.429  52.239  0.00  0.00    +0.000 A 
ATOM      4  C   UNL     1      19.271   1.227  52.033  0.00  0.00    +0.000 A 
ATOM      5  C   UNL     1      19.462   2.606  51.903  0.00  0.00    +0.000 A 
ATOM      6  C   UNL     1      20.752   3.153  51.981  0.00  0.00    +0.000 A 
ATOM      7  F   UNL     1      20.875   4.490  51.985  0.00  0.00    +0.000 F 
ENDROOT
BRANCH   4   8
ATOM      8  N   UNL     1      17.954   0.693  52.006  0.00  0.00    +0.000 N 
ATOM      9  C   UNL     1      17.327   0.194  50.869  0.00  0.00    +0.000 C 
ATOM     10  O   UNL     1      17.802   0.287  49.735  0.00  0.00    +0.000 OA
ATOM     11  H   UNL     1      17.449   0.677  52.852  0.00  0.00    +0.000 HD
BRANCH   9  12
ATOM     12  C   UNL     1      15.889  -0.396  51.039  0.00  0.00    +0.000 C 
BRANCH  12  13
ATOM     13  N   UNL     1      14.899   0.653  51.416  0.00  0.00    +0.000 N 
ATOM     14  C   UNL     1      14.572   1.040  52.792  0.00  0.00    +0.000 C 
ATOM     15  C   UNL     1      13.899   2.360  52.634  0.00  0.00    +0.000 A 
ATOM     16  C   UNL     1      13.479   3.237  53.620  0.00  0.00    +0.000 A 
ATOM     17  C   UNL     1      12.875   4.430  53.222  0.00  0.00    +0.000 A 
ATOM     18  C   UNL     1      12.693   4.717  51.858  0.00  0.00    +0.000 A 
ATOM     19  C   UNL     1      13.138   3.828  50.870  0.00  0.00    +0.000 A 
ATOM     20  C   UNL     1      13.751   2.660  51.287  0.00  0.00    +0.000 A 
ATOM     21  C   UNL     1      14.418   1.596  50.509  0.00  0.00    +0.000 C 
ATOM     22  O   UNL     1      14.557   1.606  49.301  0.00  0.00    +0.000 OA
ENDBRANCH  12  13
BRANCH  12  23
ATOM     23  C   UNL     1      16.029  -1.550  52.030  0.00  0.00    +0.000 A 
ATOM     24  C   UNL     1      17.120  -1.688  52.898  0.00  0.00    +0.000 A 
ATOM     25  C   UNL     1      17.370  -2.896  53.545  0.00  0.00    +0.000 A 
ATOM     26  F   UNL     1      18.463  -3.013  54.309  0.00  0.00    +0.000 F 
ATOM     27  C   UNL     1      16.535  -3.990  53.368  0.00  0.00    +0.000 A 
ATOM     28  C   UNL     1      15.413  -3.862  52.553  0.00  0.00    +0.000 A 
ATOM     29  C   UNL     1      15.173  -2.655  51.893  0.00  0.00    +0.000 A 
ATOM     30  F   UNL     1      14.137  -2.588  51.043  0.00  0.00    +0.000 F 
ENDBRANCH  12  23
ENDBRANCH   9  12
ENDBRANCH   4   8
BRANCH   1  31
ATOM     31  N   UNL     1      23.160   2.832  52.550  0.00  0.00    +0.000 N 
ATOM     32  H   UNL     1      23.217   3.342  53.389  0.00  0.00    +0.000 HD
BRANCH  31  36
ATOM     33  C   UNL     1      24.447   5.759  49.712  0.00  0.00    +0.000 A 
ATOM     34  C   UNL     1      23.949   4.734  50.508  0.00  0.00    +0.000 A 
ATOM     35  C   UNL     1      24.745   3.626  50.885  0.00  0.00    +0.000 A 
ATOM     36  C   UNL     1      24.369   2.650  51.829  0.00  0.00    +0.000 A 
ATOM     37  N   UNL     1      25.203   1.665  52.202  0.00  0.00    +0.000 NA
ATOM     38  C   UNL     1      26.391   1.626  51.593  0.00  0.00    +0.000 A 
ATOM     39  N   UNL     1      26.827   2.472  50.651  0.00  0.00    +0.000 NA
ATOM     40  C   UNL     1      26.007   3.473  50.320  0.00  0.00    +0.000 A 
ATOM     41  C   UNL     1      26.433   4.415  49.394  0.00  0.00    +0.000 A 
ATOM     42  C   UNL     1      25.695   5.576  49.101  0.00  0.00    +0.000 A 
BRANCH  33  44
ATOM     43  C   UNL     1      23.536   7.767  50.663  0.00  0.00    +0.000 C 
ATOM     44  O   UNL     1      23.770   6.936  49.519  0.00  0.00    +0.000 OA
ENDBRANCH  33  44
BRANCH  42  45
ATOM     45  O   UNL     1      26.139   6.555  48.237  0.00  0.00    +0.000 OA
BRANCH  45  46
ATOM     46  C   UNL     1      27.175   7.401  48.749  0.00  0.00    +0.000 C 
BRANCH  46  47
ATOM     47  C   UNL     1      28.040   7.996  47.624  0.00  0.00    +0.000 C 
ATOM     48  C   UNL     1      29.109   6.988  47.172  0.00  0.00    +0.000 C 
ATOM     49  C   UNL     1      30.194   6.780  48.238  0.00  0.00    +0.000 C 
ATOM     50  N   UNL     1      30.804   8.050  48.651  0.00  0.00    +0.000 N 
ATOM     51  C   UNL     1      31.792   7.821  49.708  0.00  0.00    +0.000 C 
ATOM     52  C   UNL     1      29.814   9.042  49.097  0.00  0.00    +0.000 C 
ATOM     53  C   UNL     1      28.740   9.294  48.038  0.00  0.00    +0.000 C 
ATOM     54  H   UNL     1      31.264   8.436  47.825  0.00  0.00    +0.000 HD
ENDBRANCH  46  47
ENDBRANCH  45  46
ENDBRANCH  42  45
ENDBRANCH  31  36
ENDBRANCH   1  31
TORSDOF 10
ENDMDL
MODEL 4
REMARK VINA RESULT:    -9.854      4.363      8.775
REMARK INTER + INTRA:         -17.189
REMARK INTER:                 -16.068
REMARK INTRA:                  -1.121
REMARK UNBOUND:                -1.574
REMARK  Name = 
REMARK  12 active torsions:
REMARK  status: ('A' for Active; 'I' for Inactive)
REMARK    1  A    between atoms: C_1  and  O_2
REMARK    2  A    between atoms: O_2  and  C_3
REMARK    3  A    between atoms: C_6  and  N_7
REMARK    4  A    between atoms: N_7  and  C_8
REMARK    5  A    between atoms: C_11  and  N_12
REMARK    6  A    between atoms: C_13  and  C_15
REMARK    7  A    between atoms: C_15  and  C_16
REMARK    8  A    between atoms: C_15  and  N_24
REMARK    9  A    between atoms: C_42  and  O_43
REMARK   10  A    between atoms: O_43  and  C_44
REMARK   11  A    between atoms: C_44  and  C_45
REMARK   12  A    between atoms: N_48  and  C_49
REMARK                            x       y       z     vdW  Elec       q    Type
REMARK                         _______ _______ _______ _____ _____    ______ ____
ROOT
ATOM      1  C   UNL     1      20.826   4.769  50.767  0.00  0.00    +0.000 A 
ATOM      2  C   UNL     1      20.723   3.940  51.889  0.00  0.00    +0.000 A 
ATOM      3  C   UNL     1      19.630   3.092  52.051  0.00  0.00    +0.000 A 
ATOM      4  C   UNL     1      18.593   3.034  51.110  0.00  0.00    +0.000 A 
ATOM      5  C   UNL     1      18.687   3.863  49.988  0.00  0.00    +0.000 A 
ATOM      6  C   UNL     1      19.790   4.716  49.828  0.00  0.00    +0.000 A 
ATOM      7  F   UNL     1      19.775   5.590  48.808  0.00  0.00    +0.000 F 
ENDROOT
BRANCH   4   8
ATOM      8  N   UNL     1      17.443   2.215  51.284  0.00  0.00    +0.000 N 
ATOM      9  C   UNL     1      17.291   0.943  50.742  0.00  0.00    +0.000 C 
ATOM     10  O   UNL     1      18.086   0.446  49.940  0.00  0.00    +0.000 OA
ATOM     11  H   UNL     1      16.703   2.574  51.825  0.00  0.00    +0.000 HD
BRANCH   9  12
ATOM     12  C   UNL     1      15.975   0.169  51.078  0.00  0.00    +0.000 C 
BRANCH  12  13
ATOM     13  N   UNL     1      14.887   1.088  51.520  0.00  0.00    +0.000 N 
ATOM     14  C   UNL     1      14.427   1.236  52.904  0.00  0.00    +0.000 C 
ATOM     15  C   UNL     1      13.677   2.523  52.888  0.00  0.00    +0.000 A 
ATOM     16  C   UNL     1      13.119   3.210  53.954  0.00  0.00    +0.000 A 
ATOM     17  C   UNL     1      12.467   4.414  53.688  0.00  0.00    +0.000 A 
ATOM     18  C   UNL     1      12.374   4.900  52.372  0.00  0.00    +0.000 A 
ATOM     19  C   UNL     1      12.957   4.203  51.305  0.00  0.00    +0.000 A 
ATOM     20  C   UNL     1      13.615   3.021  51.593  0.00  0.00    +0.000 A 
ATOM     21  C   UNL     1      14.415   2.132  50.727  0.00  0.00    +0.000 C 
ATOM     22  O   UNL     1      14.648   2.339  49.551  0.00  0.00    +0.000 OA
ENDBRANCH  12  13
BRANCH  12  23
ATOM     23  C   UNL     1      16.374  -0.907  52.088  0.00  0.00    +0.000 A 
ATOM     24  C   UNL     1      17.600  -0.906  52.766  0.00  0.00    +0.000 A 
ATOM     25  C   UNL     1      18.054  -2.048  53.420  0.00  0.00    +0.000 A 
ATOM     26  F   UNL     1      19.264  -2.034  53.994  0.00  0.00    +0.000 F 
ATOM     27  C   UNL     1      17.298  -3.212  53.441  0.00  0.00    +0.000 A 
ATOM     28  C   UNL     1      16.050  -3.220  52.822  0.00  0.00    +0.000 A 
ATOM     29  C   UNL     1      15.604  -2.080  52.152  0.00  0.00    +0.000 A 
ATOM     30  F   UNL     1      14.441  -2.145  51.486  0.00  0.00    +0.000 F 
ENDBRANCH  12  23
ENDBRANCH   9  12
ENDBRANCH   4   8
BRANCH   1  31
ATOM     31  N   UNL     1      21.812   5.778  50.834  0.00  0.00    +0.000 N 
ATOM     32  H   UNL     1      21.582   6.589  51.342  0.00  0.00    +0.000 HD
BRANCH  31  36
ATOM     33  C   UNL     1      24.606   2.732  51.932  0.00  0.00    +0.000 A 
ATOM     34  C   UNL     1      23.763   3.813  51.698  0.00  0.00    +0.000 A 
ATOM     35  C   UNL     1      24.001   4.734  50.650  0.00  0.00    +0.000 A 
ATOM     36  C   UNL     1      23.102   5.739  50.242  0.00  0.00    +0.000 A 
ATOM     37  N   UNL     1      23.353   6.532  49.188  0.00  0.00    +0.000 NA
ATOM     38  C   UNL     1      24.526   6.355  48.575  0.00  0.00    +0.000 A 
ATOM     39  N   UNL     1      25.470   5.465  48.909  0.00  0.00    +0.000 NA
ATOM     40  C   UNL     1      25.190   4.653  49.932  0.00  0.00    +0.000 A 
ATOM     41  C   UNL     1      26.106   3.672  50.283  0.00  0.00    +0.000 A 
ATOM     42  C   UNL     1      25.827   2.685  51.246  0.00  0.00    +0.000 A 
BRANCH  33  44
ATOM     43  C   UNL     1      23.073   0.984  52.531  0.00  0.00    +0.000 C 
ATOM     44  O   UNL     1      24.277   1.716  52.792  0.00  0.00    +0.000 OA
ENDBRANCH  33  44
BRANCH  42  45
ATOM     45  O   UNL     1      26.699   1.662  51.553  0.00  0.00    +0.000 OA
BRANCH  45  46
ATOM     46  C   UNL     1      27.777   2.017  52.428  0.00  0.00    +0.000 C 
BRANCH  46  47
ATOM     47  C   UNL     1      27.574   1.458  53.846  0.00  0.00    +0.000 C 
ATOM     48  C   UNL     1      28.927   1.102  54.487  0.00  0.00    +0.000 C 
ATOM     49  C   UNL     1      29.574  -0.123  53.825  0.00  0.00    +0.000 C 
ATOM     50  N   UNL     1      28.671  -1.280  53.818  0.00  0.00    +0.000 N 
ATOM     51  C   UNL     1      29.298  -2.411  53.129  0.00  0.00    +0.000 C 
ATOM     52  C   UNL     1      27.366  -0.983  53.207  0.00  0.00    +0.000 C 
ATOM     53  C   UNL     1      26.683   0.213  53.872  0.00  0.00    +0.000 C 
ATOM     54  H   UNL     1      28.497  -1.522  54.794  0.00  0.00    +0.000 HD
ENDBRANCH  46  47
ENDBRANCH  45  46
ENDBRANCH  42  45
ENDBRANCH  31  36
ENDBRANCH   1  31
TORSDOF 10
ENDMDL
MODEL 5
REMARK VINA RESULT:    -9.806      3.171      6.024
REMARK INTER + INTRA:         -17.113
REMARK INTER:                 -16.148
REMARK INTRA:                  -0.965
REMARK UNBOUND:                -1.574
REMARK  Name = 
REMARK  12 active torsions:
REMARK  status: ('A' for Active; 'I' for Inactive)
REMARK    1  A    between atoms: C_1  and  O_2
REMARK    2  A    between atoms: O_2  and  C_3
REMARK    3  A    between atoms: C_6  and  N_7
REMARK    4  A    between atoms: N_7  and  C_8
REMARK    5  A    between atoms: C_11  and  N_12
REMARK    6  A    between atoms: C_13  and  C_15
REMARK    7  A    between atoms: C_15  and  C_16
REMARK    8  A    between atoms: C_15  and  N_24
REMARK    9  A    between atoms: C_42  and  O_43
REMARK   10  A    between atoms: O_43  and  C_44
REMARK   11  A    between atoms: C_44  and  C_45
REMARK   12  A    between atoms: N_48  and  C_49
REMARK                            x       y       z     vdW  Elec       q    Type
REMARK                         _______ _______ _______ _____ _____    ______ ____
ROOT
ATOM      1  C   UNL     1      26.136   5.868  48.681  0.00  0.00    +0.000 A 
ATOM      2  C   UNL     1      24.896   5.863  49.327  0.00  0.00    +0.000 A 
ATOM      3  C   UNL     1      24.562   4.851  50.224  0.00  0.00    +0.000 A 
ATOM      4  C   UNL     1      25.443   3.800  50.513  0.00  0.00    +0.000 A 
ATOM      5  C   UNL     1      26.683   3.796  49.868  0.00  0.00    +0.000 A 
ATOM      6  C   UNL     1      27.016   4.818  48.966  0.00  0.00    +0.000 A 
ATOM      7  F   UNL     1      28.159   4.703  48.270  0.00  0.00    +0.000 F 
ENDROOT
BRANCH   4   8
ATOM      8  N   UNL     1      25.099   2.730  51.384  0.00  0.00    +0.000 N 
ATOM      9  C   UNL     1      24.411   2.877  52.583  0.00  0.00    +0.000 C 
ATOM     10  O   UNL     1      24.144   3.973  53.083  0.00  0.00    +0.000 OA
ATOM     11  H   UNL     1      25.369   1.820  51.120  0.00  0.00    +0.000 HD
BRANCH   9  12
ATOM     12  C   UNL     1      24.080   1.579  53.390  0.00  0.00    +0.000 C 
BRANCH  12  13
ATOM     13  N   UNL     1      25.288   0.730  53.595  0.00  0.00    +0.000 N 
ATOM     14  C   UNL     1      25.412  -0.667  53.166  0.00  0.00    +0.000 C 
ATOM     15  C   UNL     1      26.881  -0.914  53.199  0.00  0.00    +0.000 A 
ATOM     16  C   UNL     1      27.576  -2.037  52.783  0.00  0.00    +0.000 A 
ATOM     17  C   UNL     1      28.966  -2.031  52.907  0.00  0.00    +0.000 A 
ATOM     18  C   UNL     1      29.629  -0.918  53.453  0.00  0.00    +0.000 A 
ATOM     19  C   UNL     1      28.914   0.218  53.855  0.00  0.00    +0.000 A 
ATOM     20  C   UNL     1      27.539   0.199  53.705  0.00  0.00    +0.000 A 
ATOM     21  C   UNL     1      26.535   1.260  53.923  0.00  0.00    +0.000 C 
ATOM     22  O   UNL     1      26.793   2.397  54.268  0.00  0.00    +0.000 OA
ENDBRANCH  12  13
BRANCH  12  23
ATOM     23  C   UNL     1      22.928   0.910  52.642  0.00  0.00    +0.000 A 
ATOM     24  C   UNL     1      22.698   1.086  51.271  0.00  0.00    +0.000 A 
ATOM     25  C   UNL     1      21.479   0.728  50.701  0.00  0.00    +0.000 A 
ATOM     26  F   UNL     1      21.267   0.980  49.403  0.00  0.00    +0.000 F 
ATOM     27  C   UNL     1      20.466   0.168  51.466  0.00  0.00    +0.000 A 
ATOM     28  C   UNL     1      20.691  -0.069  52.820  0.00  0.00    +0.000 A 
ATOM     29  C   UNL     1      21.907   0.305  53.394  0.00  0.00    +0.000 A 
ATOM     30  F   UNL     1      22.063   0.150  54.717  0.00  0.00    +0.000 F 
ENDBRANCH  12  23
ENDBRANCH   9  12
ENDBRANCH   4   8
BRANCH   1  31
ATOM     31  N   UNL     1      26.265   6.765  47.599  0.00  0.00    +0.000 N 
ATOM     32  H   UNL     1      26.854   6.488  46.861  0.00  0.00    +0.000 HD
BRANCH  31  36
ATOM     33  C   UNL     1      22.524   7.106  45.556  0.00  0.00    +0.000 A 
ATOM     34  C   UNL     1      23.812   7.022  46.073  0.00  0.00    +0.000 A 
ATOM     35  C   UNL     1      24.411   8.101  46.766  0.00  0.00    +0.000 A 
ATOM     36  C   UNL     1      25.630   8.028  47.468  0.00  0.00    +0.000 A 
ATOM     37  N   UNL     1      26.107   9.068  48.173  0.00  0.00    +0.000 NA
ATOM     38  C   UNL     1      25.391  10.194  48.133  0.00  0.00    +0.000 A 
ATOM     39  N   UNL     1      24.249  10.385  47.461  0.00  0.00    +0.000 NA
ATOM     40  C   UNL     1      23.762   9.332  46.799  0.00  0.00    +0.000 A 
ATOM     41  C   UNL     1      22.549   9.455  46.135  0.00  0.00    +0.000 A 
ATOM     42  C   UNL     1      21.897   8.359  45.542  0.00  0.00    +0.000 A 
BRANCH  33  44
ATOM     43  C   UNL     1      21.424   6.032  43.711  0.00  0.00    +0.000 C 
ATOM     44  O   UNL     1      21.851   6.011  45.079  0.00  0.00    +0.000 OA
ENDBRANCH  33  44
BRANCH  42  45
ATOM     45  O   UNL     1      20.659   8.453  44.941  0.00  0.00    +0.000 OA
BRANCH  45  46
ATOM     46  C   UNL     1      19.638   9.071  45.734  0.00  0.00    +0.000 C 
BRANCH  46  47
ATOM     47  C   UNL     1      18.764   8.033  46.458  0.00  0.00    +0.000 C 
ATOM     48  C   UNL     1      17.511   8.699  47.052  0.00  0.00    +0.000 C 
ATOM     49  C   UNL     1      17.850   9.612  48.238  0.00  0.00    +0.000 C 
ATOM     50  N   UNL     1      18.613   8.902  49.273  0.00  0.00    +0.000 N 
ATOM     51  C   UNL     1      18.968   9.817  50.361  0.00  0.00    +0.000 C 
ATOM     52  C   UNL     1      19.825   8.255  48.746  0.00  0.00    +0.000 C 
ATOM     53  C   UNL     1      19.510   7.312  47.585  0.00  0.00    +0.000 C 
ATOM     54  H   UNL     1      18.007   8.162  49.626  0.00  0.00    +0.000 HD
ENDBRANCH  46  47
ENDBRANCH  45  46
ENDBRANCH  42  45
ENDBRANCH  31  36
ENDBRANCH   1  31
TORSDOF 10
ENDMDL
MODEL 6
REMARK VINA RESULT:    -9.793      3.273      6.949
REMARK INTER + INTRA:         -17.093
REMARK INTER:                 -16.463
REMARK INTRA:                  -0.630
REMARK UNBOUND:                -1.574
REMARK  Name = 
REMARK  12 active torsions:
REMARK  status: ('A' for Active; 'I' for Inactive)
REMARK    1  A    between atoms: C_1  and  O_2
REMARK    2  A    between atoms: O_2  and  C_3
REMARK    3  A    between atoms: C_6  and  N_7
REMARK    4  A    between atoms: N_7  and  C_8
REMARK    5  A    between atoms: C_11  and  N_12
REMARK    6  A    between atoms: C_13  and  C_15
REMARK    7  A    between atoms: C_15  and  C_16
REMARK    8  A    between atoms: C_15  and  N_24
REMARK    9  A    between atoms: C_42  and  O_43
REMARK   10  A    between atoms: O_43  and  C_44
REMARK   11  A    between atoms: C_44  and  C_45
REMARK   12  A    between atoms: N_48  and  C_49
REMARK                            x       y       z     vdW  Elec       q    Type
REMARK                         _______ _______ _______ _____ _____    ______ ____
ROOT
ATOM      1  C   UNL     1      26.678   6.718  48.785  0.00  0.00    +0.000 A 
ATOM      2  C   UNL     1      25.571   6.406  49.581  0.00  0.00    +0.000 A 
ATOM      3  C   UNL     1      25.406   5.126  50.106  0.00  0.00    +0.000 A 
ATOM      4  C   UNL     1      26.332   4.102  49.860  0.00  0.00    +0.000 A 
ATOM      5  C   UNL     1      27.440   4.406  49.063  0.00  0.00    +0.000 A 
ATOM      6  C   UNL     1      27.601   5.696  48.536  0.00  0.00    +0.000 A 
ATOM      7  F   UNL     1      28.605   5.907  47.669  0.00  0.00    +0.000 F 
ENDROOT
BRANCH   4   8
ATOM      8  N   UNL     1      26.155   2.777  50.343  0.00  0.00    +0.000 N 
ATOM      9  C   UNL     1      25.727   2.454  51.626  0.00  0.00    +0.000 C 
ATOM     10  O   UNL     1      25.585   3.287  52.525  0.00  0.00    +0.000 OA
ATOM     11  H   UNL     1      26.350   2.035  49.726  0.00  0.00    +0.000 HD
BRANCH   9  12
ATOM     12  C   UNL     1      25.546   0.939  51.967  0.00  0.00    +0.000 C 
BRANCH  12  13
ATOM     13  N   UNL     1      24.212   0.661  52.572  0.00  0.00    +0.000 N 
ATOM     14  C   UNL     1      22.928   1.061  51.989  0.00  0.00    +0.000 C 
ATOM     15  C   UNL     1      21.937   0.209  52.704  0.00  0.00    +0.000 A 
ATOM     16  C   UNL     1      20.577   0.089  52.474  0.00  0.00    +0.000 A 
ATOM     17  C   UNL     1      19.851  -0.792  53.278  0.00  0.00    +0.000 A 
ATOM     18  C   UNL     1      20.491  -1.520  54.296  0.00  0.00    +0.000 A 
ATOM     19  C   UNL     1      21.870  -1.401  54.507  0.00  0.00    +0.000 A 
ATOM     20  C   UNL     1      22.574  -0.538  53.687  0.00  0.00    +0.000 A 
ATOM     21  C   UNL     1      24.025  -0.281  53.581  0.00  0.00    +0.000 C 
ATOM     22  O   UNL     1      24.877  -0.854  54.233  0.00  0.00    +0.000 OA
ENDBRANCH  12  13
BRANCH  12  23
ATOM     23  C   UNL     1      26.748   0.562  52.831  0.00  0.00    +0.000 A 
ATOM     24  C   UNL     1      27.455   1.489  53.608  0.00  0.00    +0.000 A 
ATOM     25  C   UNL     1      28.714   1.180  54.117  0.00  0.00    +0.000 A 
ATOM     26  F   UNL     1      29.393   2.116  54.792  0.00  0.00    +0.000 F 
ATOM     27  C   UNL     1      29.295  -0.060  53.892  0.00  0.00    +0.000 A 
ATOM     28  C   UNL     1      28.588  -1.018  53.170  0.00  0.00    +0.000 A 
ATOM     29  C   UNL     1      27.333  -0.702  52.645  0.00  0.00    +0.000 A 
ATOM     30  F   UNL     1      26.715  -1.611  51.876  0.00  0.00    +0.000 F 
ENDBRANCH  12  23
ENDBRANCH   9  12
ENDBRANCH   4   8
BRANCH   1  31
ATOM     31  N   UNL     1      26.608   7.940  48.082  0.00  0.00    +0.000 N 
ATOM     32  H   UNL     1      26.780   8.759  48.600  0.00  0.00    +0.000 HD
BRANCH  31  36
ATOM     33  C   UNL     1      22.608   8.755  46.809  0.00  0.00    +0.000 A 
ATOM     34  C   UNL     1      23.871   8.329  47.206  0.00  0.00    +0.000 A 
ATOM     35  C   UNL     1      24.978   8.348  46.324  0.00  0.00    +0.000 A 
ATOM     36  C   UNL     1      26.313   8.105  46.703  0.00  0.00    +0.000 A 
ATOM     37  N   UNL     1      27.330   8.216  45.833  0.00  0.00    +0.000 NA
ATOM     38  C   UNL     1      27.007   8.518  44.573  0.00  0.00    +0.000 A 
ATOM     39  N   UNL     1      25.771   8.720  44.098  0.00  0.00    +0.000 NA
ATOM     40  C   UNL     1      24.772   8.650  44.981  0.00  0.00    +0.000 A 
ATOM     41  C   UNL     1      23.477   8.912  44.556  0.00  0.00    +0.000 A 
ATOM     42  C   UNL     1      22.392   9.005  45.447  0.00  0.00    +0.000 A 
BRANCH  33  44
ATOM     43  C   UNL     1      21.857   8.730  49.090  0.00  0.00    +0.000 C 
ATOM     44  O   UNL     1      21.585   8.950  47.700  0.00  0.00    +0.000 OA
ENDBRANCH  33  44
BRANCH  42  45
ATOM     45  O   UNL     1      21.114   9.334  45.048  0.00  0.00    +0.000 OA
BRANCH  45  46
ATOM     46  C   UNL     1      20.622   8.615  43.911  0.00  0.00    +0.000 C 
BRANCH  46  47
ATOM     47  C   UNL     1      19.274   7.933  44.201  0.00  0.00    +0.000 C 
ATOM     48  C   UNL     1      19.331   7.163  45.532  0.00  0.00    +0.000 C 
ATOM     49  C   UNL     1      20.226   5.919  45.441  0.00  0.00    +0.000 C 
ATOM     50  N   UNL     1      19.826   5.039  44.336  0.00  0.00    +0.000 N 
ATOM     51  C   UNL     1      20.735   3.894  44.243  0.00  0.00    +0.000 C 
ATOM     52  C   UNL     1      19.765   5.736  43.042  0.00  0.00    +0.000 C 
ATOM     53  C   UNL     1      18.851   6.960  43.096  0.00  0.00    +0.000 C 
ATOM     54  H   UNL     1      18.882   4.715  44.548  0.00  0.00    +0.000 HD
ENDBRANCH  46  47
ENDBRANCH  45  46
ENDBRANCH  42  45
ENDBRANCH  31  36
ENDBRANCH   1  31
TORSDOF 10
ENDMDL
MODEL 7
REMARK VINA RESULT:    -9.767      3.188      6.106
REMARK INTER + INTRA:         -17.052
REMARK INTER:                 -15.674
REMARK INTRA:                  -1.378
REMARK UNBOUND:                -1.574
REMARK  Name = 
REMARK  12 active torsions:
REMARK  status: ('A' for Active; 'I' for Inactive)
REMARK    1  A    between atoms: C_1  and  O_2
REMARK    2  A    between atoms: O_2  and  C_3
REMARK    3  A    between atoms: C_6  and  N_7
REMARK    4  A    between atoms: N_7  and  C_8
REMARK    5  A    between atoms: C_11  and  N_12
REMARK    6  A    between atoms: C_13  and  C_15
REMARK    7  A    between atoms: C_15  and  C_16
REMARK    8  A    between atoms: C_15  and  N_24
REMARK    9  A    between atoms: C_42  and  O_43
REMARK   10  A    between atoms: O_43  and  C_44
REMARK   11  A    between atoms: C_44  and  C_45
REMARK   12  A    between atoms: N_48  and  C_49
REMARK                            x       y       z     vdW  Elec       q    Type
REMARK                         _______ _______ _______ _____ _____    ______ ____
ROOT
ATOM      1  C   UNL     1      25.281   7.415  49.315  0.00  0.00    +0.000 A 
ATOM      2  C   UNL     1      24.361   7.595  50.354  0.00  0.00    +0.000 A 
ATOM      3  C   UNL     1      24.052   6.551  51.223  0.00  0.00    +0.000 A 
ATOM      4  C   UNL     1      24.638   5.285  51.094  0.00  0.00    +0.000 A 
ATOM      5  C   UNL     1      25.556   5.095  50.057  0.00  0.00    +0.000 A 
ATOM      6  C   UNL     1      25.865   6.150  49.184  0.00  0.00    +0.000 A 
ATOM      7  F   UNL     1      26.647   5.888  48.123  0.00  0.00    +0.000 F 
ENDROOT
BRANCH   4   8
ATOM      8  N   UNL     1      24.296   4.192  51.938  0.00  0.00    +0.000 N 
ATOM      9  C   UNL     1      24.802   2.904  51.806  0.00  0.00    +0.000 C 
ATOM     10  O   UNL     1      25.502   2.542  50.857  0.00  0.00    +0.000 OA
ATOM     11  H   UNL     1      23.654   4.359  52.666  0.00  0.00    +0.000 HD
BRANCH   9  12
ATOM     12  C   UNL     1      24.346   1.839  52.856  0.00  0.00    +0.000 C 
BRANCH  12  13
ATOM     13  N   UNL     1      25.467   0.947  53.266  0.00  0.00    +0.000 N 
ATOM     14  C   UNL     1      25.621  -0.451  52.852  0.00  0.00    +0.000 C 
ATOM     15  C   UNL     1      27.050  -0.749  53.147  0.00  0.00    +0.000 A 
ATOM     16  C   UNL     1      27.772  -1.894  52.851  0.00  0.00    +0.000 A 
ATOM     17  C   UNL     1      29.115  -1.936  53.225  0.00  0.00    +0.000 A 
ATOM     18  C   UNL     1      29.705  -0.849  53.893  0.00  0.00    +0.000 A 
ATOM     19  C   UNL     1      28.968   0.309  54.172  0.00  0.00    +0.000 A 
ATOM     20  C   UNL     1      27.643   0.338  53.776  0.00  0.00    +0.000 A 
ATOM     21  C   UNL     1      26.651   1.432  53.819  0.00  0.00    +0.000 C 
ATOM     22  O   UNL     1      26.881   2.558  54.218  0.00  0.00    +0.000 OA
ENDBRANCH  12  13
BRANCH  12  23
ATOM     23  C   UNL     1      23.143   1.132  52.232  0.00  0.00    +0.000 A 
ATOM     24  C   UNL     1      22.739   1.332  50.905  0.00  0.00    +0.000 A 
ATOM     25  C   UNL     1      21.477   0.929  50.475  0.00  0.00    +0.000 A 
ATOM     26  F   UNL     1      21.097   1.203  49.221  0.00  0.00    +0.000 F 
ATOM     27  C   UNL     1      20.592   0.300  51.339  0.00  0.00    +0.000 A 
ATOM     28  C   UNL     1      20.991   0.040  52.647  0.00  0.00    +0.000 A 
ATOM     29  C   UNL     1      22.250   0.459  53.082  0.00  0.00    +0.000 A 
ATOM     30  F   UNL     1      22.573   0.279  54.372  0.00  0.00    +0.000 F 
ENDBRANCH  12  23
ENDBRANCH   9  12
ENDBRANCH   4   8
BRANCH   1  31
ATOM     31  N   UNL     1      25.313   8.431  48.336  0.00  0.00    +0.000 N 
ATOM     32  H   UNL     1      25.472   9.349  48.656  0.00  0.00    +0.000 HD
BRANCH  31  36
ATOM     33  C   UNL     1      21.451   7.545  46.729  0.00  0.00    +0.000 A 
ATOM     34  C   UNL     1      22.730   7.669  47.263  0.00  0.00    +0.000 A 
ATOM     35  C   UNL     1      23.855   7.947  46.452  0.00  0.00    +0.000 A 
ATOM     36  C   UNL     1      25.139   8.263  46.938  0.00  0.00    +0.000 A 
ATOM     37  N   UNL     1      26.148   8.595  46.115  0.00  0.00    +0.000 NA
ATOM     38  C   UNL     1      25.887   8.560  44.806  0.00  0.00    +0.000 A 
ATOM     39  N   UNL     1      24.720   8.228  44.239  0.00  0.00    +0.000 NA
ATOM     40  C   UNL     1      23.712   7.942  45.067  0.00  0.00    +0.000 A 
ATOM     41  C   UNL     1      22.464   7.650  44.535  0.00  0.00    +0.000 A 
ATOM     42  C   UNL     1      21.319   7.485  45.336  0.00  0.00    +0.000 A 
BRANCH  33  44
ATOM     43  C   UNL     1      20.389   6.717  48.718  0.00  0.00    +0.000 C 
ATOM     44  O   UNL     1      20.329   7.494  47.515  0.00  0.00    +0.000 OA
ENDBRANCH  33  44
BRANCH  42  45
ATOM     45  O   UNL     1      20.060   7.266  44.817  0.00  0.00    +0.000 OA
BRANCH  45  46
ATOM     46  C   UNL     1      19.930   6.100  43.995  0.00  0.00    +0.000 C 
BRANCH  46  47
ATOM     47  C   UNL     1      20.265   4.812  44.767  0.00  0.00    +0.000 C 
ATOM     48  C   UNL     1      20.385   3.618  43.804  0.00  0.00    +0.000 C 
ATOM     49  C   UNL     1      19.025   3.212  43.218  0.00  0.00    +0.000 C 
ATOM     50  N   UNL     1      18.035   2.948  44.269  0.00  0.00    +0.000 N 
ATOM     51  C   UNL     1      16.737   2.619  43.675  0.00  0.00    +0.000 C 
ATOM     52  C   UNL     1      17.886   4.069  45.209  0.00  0.00    +0.000 C 
ATOM     53  C   UNL     1      19.222   4.472  45.835  0.00  0.00    +0.000 C 
ATOM     54  H   UNL     1      18.382   2.151  44.805  0.00  0.00    +0.000 HD
ENDBRANCH  46  47
ENDBRANCH  45  46
ENDBRANCH  42  45
ENDBRANCH  31  36
ENDBRANCH   1  31
TORSDOF 10
ENDMDL
MODEL 8
REMARK VINA RESULT:    -9.671      2.981      9.765
REMARK INTER + INTRA:         -16.899
REMARK INTER:                 -15.987
REMARK INTRA:                  -0.912
REMARK UNBOUND:                -1.574
REMARK  Name = 
REMARK  12 active torsions:
REMARK  status: ('A' for Active; 'I' for Inactive)
REMARK    1  A    between atoms: C_1  and  O_2
REMARK    2  A    between atoms: O_2  and  C_3
REMARK    3  A    between atoms: C_6  and  N_7
REMARK    4  A    between atoms: N_7  and  C_8
REMARK    5  A    between atoms: C_11  and  N_12
REMARK    6  A    between atoms: C_13  and  C_15
REMARK    7  A    between atoms: C_15  and  C_16
REMARK    8  A    between atoms: C_15  and  N_24
REMARK    9  A    between atoms: C_42  and  O_43
REMARK   10  A    between atoms: O_43  and  C_44
REMARK   11  A    between atoms: C_44  and  C_45
REMARK   12  A    between atoms: N_48  and  C_49
REMARK                            x       y       z     vdW  Elec       q    Type
REMARK                         _______ _______ _______ _____ _____    ______ ____
ROOT
ATOM      1  C   UNL     1      19.913   2.558  51.425  0.00  0.00    +0.000 A 
ATOM      2  C   UNL     1      20.103   3.846  51.934  0.00  0.00    +0.000 A 
ATOM      3  C   UNL     1      20.880   4.778  51.249  0.00  0.00    +0.000 A 
ATOM      4  C   UNL     1      21.504   4.468  50.032  0.00  0.00    +0.000 A 
ATOM      5  C   UNL     1      21.321   3.180  49.518  0.00  0.00    +0.000 A 
ATOM      6  C   UNL     1      20.538   2.245  50.212  0.00  0.00    +0.000 A 
ATOM      7  F   UNL     1      20.499   0.983  49.752  0.00  0.00    +0.000 F 
ENDROOT
BRANCH   4   8
ATOM      8  N   UNL     1      22.344   5.386  49.345  0.00  0.00    +0.000 N 
ATOM      9  C   UNL     1      23.317   6.173  49.952  0.00  0.00    +0.000 C 
ATOM     10  O   UNL     1      23.461   6.253  51.174  0.00  0.00    +0.000 OA
ATOM     11  H   UNL     1      22.227   5.473  48.371  0.00  0.00    +0.000 HD
BRANCH   9  12
ATOM     12  C   UNL     1      24.178   7.095  49.028  0.00  0.00    +0.000 C 
BRANCH  12  13
ATOM     13  N   UNL     1      23.404   7.582  47.852  0.00  0.00    +0.000 N 
ATOM     14  C   UNL     1      23.325   6.896  46.558  0.00  0.00    +0.000 C 
ATOM     15  C   UNL     1      22.140   7.516  45.904  0.00  0.00    +0.000 A 
ATOM     16  C   UNL     1      21.535   7.171  44.707  0.00  0.00    +0.000 A 
ATOM     17  C   UNL     1      20.418   7.902  44.301  0.00  0.00    +0.000 A 
ATOM     18  C   UNL     1      19.937   8.964  45.086  0.00  0.00    +0.000 A 
ATOM     19  C   UNL     1      20.548   9.293  46.303  0.00  0.00    +0.000 A 
ATOM     20  C   UNL     1      21.642   8.543  46.696  0.00  0.00    +0.000 A 
ATOM     21  C   UNL     1      22.420   8.563  47.952  0.00  0.00    +0.000 C 
ATOM     22  O   UNL     1      22.177   9.280  48.904  0.00  0.00    +0.000 OA
ENDBRANCH  12  13
BRANCH  12  23
ATOM     23  C   UNL     1      25.435   6.291  48.698  0.00  0.00    +0.000 A 
ATOM     24  C   UNL     1      25.587   4.936  49.023  0.00  0.00    +0.000 A 
ATOM     25  C   UNL     1      26.842   4.333  48.997  0.00  0.00    +0.000 A 
ATOM     26  F   UNL     1      26.960   3.057  49.386  0.00  0.00    +0.000 F 
ATOM     27  C   UNL     1      27.973   5.046  48.629  0.00  0.00    +0.000 A 
ATOM     28  C   UNL     1      27.840   6.379  48.248  0.00  0.00    +0.000 A 
ATOM     29  C   UNL     1      26.585   6.987  48.289  0.00  0.00    +0.000 A 
ATOM     30  F   UNL     1      26.500   8.296  48.007  0.00  0.00    +0.000 F 
ENDBRANCH  12  23
ENDBRANCH   9  12
ENDBRANCH   4   8
BRANCH   1  31
ATOM     31  N   UNL     1      19.353   1.618  52.317  0.00  0.00    +0.000 N 
ATOM     32  H   UNL     1      18.453   1.818  52.663  0.00  0.00    +0.000 HD
BRANCH  31  36
ATOM     33  C   UNL     1      23.553   1.471  53.104  0.00  0.00    +0.000 A 
ATOM     34  C   UNL     1      22.224   1.473  52.692  0.00  0.00    +0.000 A 
ATOM     35  C   UNL     1      21.348   0.402  52.989  0.00  0.00    +0.000 A 
ATOM     36  C   UNL     1      19.957   0.415  52.766  0.00  0.00    +0.000 A 
ATOM     37  N   UNL     1      19.168  -0.605  53.143  0.00  0.00    +0.000 NA
ATOM     38  C   UNL     1      19.776  -1.657  53.695  0.00  0.00    +0.000 A 
ATOM     39  N   UNL     1      21.091  -1.792  53.908  0.00  0.00    +0.000 NA
ATOM     40  C   UNL     1      21.861  -0.755  53.570  0.00  0.00    +0.000 A 
ATOM     41  C   UNL     1      23.224  -0.815  53.825  0.00  0.00    +0.000 A 
ATOM     42  C   UNL     1      24.079   0.286  53.637  0.00  0.00    +0.000 A 
BRANCH  33  44
ATOM     43  C   UNL     1      24.594   3.132  51.717  0.00  0.00    +0.000 C 
ATOM     44  O   UNL     1      24.350   2.583  53.018  0.00  0.00    +0.000 OA
ENDBRANCH  33  44
BRANCH  42  45
ATOM     45  O   UNL     1      25.421   0.262  53.953  0.00  0.00    +0.000 OA
BRANCH  45  46
ATOM     46  C   UNL     1      26.092  -0.974  53.686  0.00  0.00    +0.000 C 
BRANCH  46  47
ATOM     47  C   UNL     1      27.141  -0.830  52.570  0.00  0.00    +0.000 C 
ATOM     48  C   UNL     1      28.533  -1.244  53.078  0.00  0.00    +0.000 C 
ATOM     49  C   UNL     1      29.102  -0.237  54.088  0.00  0.00    +0.000 C 
ATOM     50  N   UNL     1      29.120   1.128  53.547  0.00  0.00    +0.000 N 
ATOM     51  C   UNL     1      29.613   2.068  54.556  0.00  0.00    +0.000 C 
ATOM     52  C   UNL     1      27.804   1.565  53.056  0.00  0.00    +0.000 C 
ATOM     53  C   UNL     1      27.230   0.597  52.021  0.00  0.00    +0.000 C 
ATOM     54  H   UNL     1      29.751   1.116  52.746  0.00  0.00    +0.000 HD
ENDBRANCH  46  47
ENDBRANCH  45  46
ENDBRANCH  42  45
ENDBRANCH  31  36
ENDBRANCH   1  31
TORSDOF 10
ENDMDL
MODEL 9
REMARK VINA RESULT:    -9.404      3.786     12.808
REMARK INTER + INTRA:         -16.477
REMARK INTER:                 -14.686
REMARK INTRA:                  -1.791
REMARK UNBOUND:                -1.574
REMARK  Name = 
REMARK  12 active torsions:
REMARK  status: ('A' for Active; 'I' for Inactive)
REMARK    1  A    between atoms: C_1  and  O_2
REMARK    2  A    between atoms: O_2  and  C_3
REMARK    3  A    between atoms: C_6  and  N_7
REMARK    4  A    between atoms: N_7  and  C_8
REMARK    5  A    between atoms: C_11  and  N_12
REMARK    6  A    between atoms: C_13  and  C_15
REMARK    7  A    between atoms: C_15  and  C_16
REMARK    8  A    between atoms: C_15  and  N_24
REMARK    9  A    between atoms: C_42  and  O_43
REMARK   10  A    between atoms: O_43  and  C_44
REMARK   11  A    between atoms: C_44  and  C_45
REMARK   12  A    between atoms: N_48  and  C_49
REMARK                            x       y       z     vdW  Elec       q    Type
REMARK                         _______ _______ _______ _____ _____    ______ ____
ROOT
ATOM      1  C   UNL     1      23.219   2.741  50.219  0.00  0.00    +0.000 A 
ATOM      2  C   UNL     1      24.607   2.722  50.047  0.00  0.00    +0.000 A 
ATOM      3  C   UNL     1      25.280   3.834  49.546  0.00  0.00    +0.000 A 
ATOM      4  C   UNL     1      24.603   5.009  49.191  0.00  0.00    +0.000 A 
ATOM      5  C   UNL     1      23.215   5.035  49.356  0.00  0.00    +0.000 A 
ATOM      6  C   UNL     1      22.541   3.912  49.861  0.00  0.00    +0.000 A 
ATOM      7  F   UNL     1      21.198   3.931  49.877  0.00  0.00    +0.000 F 
ENDROOT
BRANCH   4   8
ATOM      8  N   UNL     1      25.265   6.135  48.628  0.00  0.00    +0.000 N 
ATOM      9  C   UNL     1      25.914   7.119  49.365  0.00  0.00    +0.000 C 
ATOM     10  O   UNL     1      25.867   7.188  50.596  0.00  0.00    +0.000 OA
ATOM     11  H   UNL     1      25.262   6.225  47.647  0.00  0.00    +0.000 HD
BRANCH   9  12
ATOM     12  C   UNL     1      26.628   8.262  48.572  0.00  0.00    +0.000 C 
BRANCH  12  13
ATOM     13  N   UNL     1      25.892   8.617  47.325  0.00  0.00    +0.000 N 
ATOM     14  C   UNL     1      26.420   8.459  45.967  0.00  0.00    +0.000 C 
ATOM     15  C   UNL     1      25.205   8.530  45.108  0.00  0.00    +0.000 A 
ATOM     16  C   UNL     1      25.101   8.329  43.741  0.00  0.00    +0.000 A 
ATOM     17  C   UNL     1      23.840   8.442  43.156  0.00  0.00    +0.000 A 
ATOM     18  C   UNL     1      22.716   8.762  43.938  0.00  0.00    +0.000 A 
ATOM     19  C   UNL     1      22.832   8.947  45.322  0.00  0.00    +0.000 A 
ATOM     20  C   UNL     1      24.089   8.812  45.885  0.00  0.00    +0.000 A 
ATOM     21  C   UNL     1      24.515   8.831  47.299  0.00  0.00    +0.000 C 
ATOM     22  O   UNL     1      23.762   8.953  48.246  0.00  0.00    +0.000 OA
ENDBRANCH  12  13
BRANCH  12  23
ATOM     23  C   UNL     1      28.067   7.789  48.370  0.00  0.00    +0.000 A 
ATOM     24  C   UNL     1      28.399   6.481  47.995  0.00  0.00    +0.000 A 
ATOM     25  C   UNL     1      29.702   6.008  48.132  0.00  0.00    +0.000 A 
ATOM     26  F   UNL     1      29.968   4.730  47.833  0.00  0.00    +0.000 F 
ATOM     27  C   UNL     1      30.713   6.823  48.621  0.00  0.00    +0.000 A 
ATOM     28  C   UNL     1      30.420   8.145  48.949  0.00  0.00    +0.000 A 
ATOM     29  C   UNL     1      29.110   8.612  48.827  0.00  0.00    +0.000 A 
ATOM     30  F   UNL     1      28.837   9.860  49.236  0.00  0.00    +0.000 F 
ENDBRANCH  12  23
ENDBRANCH   9  12
ENDBRANCH   4   8
BRANCH   1  31
ATOM     31  N   UNL     1      22.610   1.491  50.461  0.00  0.00    +0.000 N 
ATOM     32  H   UNL     1      22.326   0.976  49.672  0.00  0.00    +0.000 HD
BRANCH  31  36
ATOM     33  C   UNL     1      18.730  -0.019  51.436  0.00  0.00    +0.000 A 
ATOM     34  C   UNL     1      19.941   0.617  51.182  0.00  0.00    +0.000 A 
ATOM     35  C   UNL     1      21.068   0.439  52.020  0.00  0.00    +0.000 A 
ATOM     36  C   UNL     1      22.367   0.902  51.730  0.00  0.00    +0.000 A 
ATOM     37  N   UNL     1      23.412   0.632  52.530  0.00  0.00    +0.000 NA
ATOM     38  C   UNL     1      23.149  -0.054  53.644  0.00  0.00    +0.000 A 
ATOM     39  N   UNL     1      21.948  -0.497  54.038  0.00  0.00    +0.000 NA
ATOM     40  C   UNL     1      20.924  -0.261  53.214  0.00  0.00    +0.000 A 
ATOM     41  C   UNL     1      19.668  -0.752  53.543  0.00  0.00    +0.000 A 
ATOM     42  C   UNL     1      18.572  -0.677  52.663  0.00  0.00    +0.000 A 
BRANCH  33  44
ATOM     43  C   UNL     1      17.039   1.204  50.248  0.00  0.00    +0.000 C 
ATOM     44  O   UNL     1      17.704  -0.035  50.526  0.00  0.00    +0.000 OA
ENDBRANCH  33  44
BRANCH  42  45
ATOM     45  O   UNL     1      17.338  -1.222  52.947  0.00  0.00    +0.000 OA
BRANCH  45  46
ATOM     46  C   UNL     1      17.366  -2.476  53.639  0.00  0.00    +0.000 C 
BRANCH  46  47
ATOM     47  C   UNL     1      16.917  -3.640  52.739  0.00  0.00    +0.000 C 
ATOM     48  C   UNL     1      15.526  -3.361  52.145  0.00  0.00    +0.000 C 
ATOM     49  C   UNL     1      14.420  -3.426  53.208  0.00  0.00    +0.000 C 
ATOM     50  N   UNL     1      14.439  -4.701  53.936  0.00  0.00    +0.000 N 
ATOM     51  C   UNL     1      13.411  -4.706  54.979  0.00  0.00    +0.000 C 
ATOM     52  C   UNL     1      15.752  -5.003  54.527  0.00  0.00    +0.000 C 
ATOM     53  C   UNL     1      16.868  -4.979  53.481  0.00  0.00    +0.000 C 
ATOM     54  H   UNL     1      14.242  -5.432  53.252  0.00  0.00    +0.000 HD
ENDBRANCH  46  47
ENDBRANCH  45  46
ENDBRANCH  42  45
ENDBRANCH  31  36
ENDBRANCH   1  31
TORSDOF 10
ENDMDL
