MODEL 1
REMARK VINA RESULT:   -10.446      0.000      0.000
REMARK INTER + INTRA:         -14.044
REMARK INTER:                 -14.110
REMARK INTRA:                   0.065
REMARK UNBOUND:                 0.065
REMARK  Name = 
REMARK  7 active torsions:
REMARK  status: ('A' for Active; 'I' for Inactive)
REMARK    1  A    between atoms: C_1  and  N_2
REMARK    2  A    between atoms: N_5  and  C_6
REMARK    3  A    between atoms: C_9  and  N_10
REMARK    4  A    between atoms: C_16  and  C_17
REMARK    5  A    between atoms: C_17  and  N_18
REMARK    6  A    between atoms: N_18  and  C_19
REMARK    7  A    between atoms: N_25  and  C_26
REMARK                            x       y       z     vdW  Elec       q    Type
REMARK                         _______ _______ _______ _____ _____    ______ ____
ROOT
ATOM      1  N   UNL     1      18.741  -0.293  52.952  0.00  0.00    +0.000 N 
ATOM      2  C   UNL     1      20.110  -0.357  53.196  0.00  0.00    +0.000 A 
ATOM      3  N   UNL     1      20.590  -1.418  53.883  0.00  0.00    +0.000 NA
ATOM      4  C   UNL     1      21.896  -1.486  54.185  0.00  0.00    +0.000 A 
ATOM      5  C   UNL     1      22.740  -0.470  53.769  0.00  0.00    +0.000 A 
ATOM      6  C   UNL     1      24.112  -0.186  53.896  0.00  0.00    +0.000 A 
ATOM      7  C   UNL     1      24.358   1.026  53.278  0.00  0.00    +0.000 A 
ATOM      8  N   UNL     1      23.157   1.471  52.739  0.00  0.00    +0.000 N 
ATOM      9  C   UNL     1      22.158   0.570  53.067  0.00  0.00    +0.000 A 
ATOM     10  N   UNL     1      20.852   0.680  52.764  0.00  0.00    +0.000 NA
ATOM     11  H   UNL     1      18.389   0.596  52.720  0.00  0.00    +0.000 HD
ENDROOT
BRANCH   1  15
ATOM     12  C   UNL     1      15.980  -3.519  52.893  0.00  0.00    +0.000 A 
ATOM     13  C   UNL     1      17.216  -3.615  53.552  0.00  0.00    +0.000 A 
ATOM     14  C   UNL     1      18.112  -2.538  53.612  0.00  0.00    +0.000 A 
ATOM     15  C   UNL     1      17.800  -1.328  52.996  0.00  0.00    +0.000 A 
ATOM     16  C   UNL     1      16.567  -1.228  52.341  0.00  0.00    +0.000 A 
ATOM     17  C   UNL     1      15.663  -2.297  52.305  0.00  0.00    +0.000 A 
BRANCH  12  22
ATOM     18  C   UNL     1      12.197  -7.624  53.265  0.00  0.00    +0.000 C 
ATOM     19  N   UNL     1      13.485  -7.009  52.950  0.00  0.00    +0.000 N 
ATOM     20  C   UNL     1      13.317  -5.949  51.925  0.00  0.00    +0.000 C 
ATOM     21  C   UNL     1      14.628  -5.177  51.627  0.00  0.00    +0.000 C 
ATOM     22  N   UNL     1      15.127  -4.611  52.889  0.00  0.00    +0.000 N 
ATOM     23  C   UNL     1      15.398  -5.657  53.893  0.00  0.00    +0.000 C 
ATOM     24  C   UNL     1      14.087  -6.426  54.174  0.00  0.00    +0.000 C 
ATOM     25  H   UNL     1      14.105  -7.730  52.582  0.00  0.00    +0.000 HD
ENDBRANCH  12  22
ENDBRANCH   1  15
BRANCH   8  26
ATOM     26  C   UNL     1      22.964   2.690  51.974  0.00  0.00    +0.000 C 
ATOM     27  C   UNL     1      23.681   2.737  50.623  0.00  0.00    +0.000 C 
ATOM     28  C   UNL     1      23.723   4.218  50.252  0.00  0.00    +0.000 C 
ATOM     29  C   UNL     1      23.399   4.999  51.526  0.00  0.00    +0.000 C 
ATOM     30  C   UNL     1      23.413   3.981  52.661  0.00  0.00    +0.000 C 
ENDBRANCH   8  26
BRANCH   7  31
ATOM     31  C   UNL     1      25.672   1.739  53.204  0.00  0.00    +0.000 C 
BRANCH  31  32
ATOM     32  N   UNL     1      26.583   1.317  54.254  0.00  0.00    +0.000 N 
ATOM     33  H   UNL     1      26.413   1.565  55.192  0.00  0.00    +0.000 HD
BRANCH  32  34
ATOM     34  C   UNL     1      27.706   0.556  53.915  0.00  0.00    +0.000 A 
ATOM     35  C   UNL     1      29.020   0.970  54.166  0.00  0.00    +0.000 A 
ATOM     36  C   UNL     1      30.112   0.142  53.882  0.00  0.00    +0.000 A 
ATOM     37  C   UNL     1      29.905  -1.129  53.355  0.00  0.00    +0.000 A 
ATOM     38  C   UNL     1      28.607  -1.574  53.128  0.00  0.00    +0.000 A 
ATOM     39  C   UNL     1      27.520  -0.744  53.422  0.00  0.00    +0.000 A 
ENDBRANCH  32  34
ENDBRANCH  31  32
ENDBRANCH   7  31
TORSDOF 6
ENDMDL
MODEL 2
REMARK VINA RESULT:    -9.395      4.107     12.657
REMARK INTER + INTRA:         -12.625
REMARK INTER:                 -11.999
REMARK INTRA:                  -0.626
REMARK UNBOUND:                 0.065
REMARK  Name = 
REMARK  7 active torsions:
REMARK  status: ('A' for Active; 'I' for Inactive)
REMARK    1  A    between atoms: C_1  and  N_2
REMARK    2  A    between atoms: N_5  and  C_6
REMARK    3  A    between atoms: C_9  and  N_10
REMARK    4  A    between atoms: C_16  and  C_17
REMARK    5  A    between atoms: C_17  and  N_18
REMARK    6  A    between atoms: N_18  and  C_19
REMARK    7  A    between atoms: N_25  and  C_26
REMARK                            x       y       z     vdW  Elec       q    Type
REMARK                         _______ _______ _______ _____ _____    ______ ____
ROOT
ATOM      1  N   UNL     1      23.522   4.233  51.353  0.00  0.00    +0.000 N 
ATOM      2  C   UNL     1      22.328   3.690  50.886  0.00  0.00    +0.000 A 
ATOM      3  N   UNL     1      21.667   4.343  49.905  0.00  0.00    +0.000 NA
ATOM      4  C   UNL     1      20.485   3.879  49.469  0.00  0.00    +0.000 A 
ATOM      5  C   UNL     1      19.967   2.721  50.022  0.00  0.00    +0.000 A 
ATOM      6  C   UNL     1      18.799   1.957  49.848  0.00  0.00    +0.000 A 
ATOM      7  C   UNL     1      18.841   0.899  50.738  0.00  0.00    +0.000 A 
ATOM      8  N   UNL     1      20.042   0.986  51.432  0.00  0.00    +0.000 N 
ATOM      9  C   UNL     1      20.719   2.119  51.016  0.00  0.00    +0.000 A 
ATOM     10  N   UNL     1      21.896   2.567  51.490  0.00  0.00    +0.000 NA
ATOM     11  H   UNL     1      23.822   3.913  52.234  0.00  0.00    +0.000 HD
ENDROOT
BRANCH   1  15
ATOM     12  C   UNL     1      26.192   7.053  49.633  0.00  0.00    +0.000 A 
ATOM     13  C   UNL     1      26.221   5.694  49.279  0.00  0.00    +0.000 A 
ATOM     14  C   UNL     1      25.314   4.767  49.811  0.00  0.00    +0.000 A 
ATOM     15  C   UNL     1      24.351   5.175  50.732  0.00  0.00    +0.000 A 
ATOM     16  C   UNL     1      24.316   6.528  51.085  0.00  0.00    +0.000 A 
ATOM     17  C   UNL     1      25.208   7.457  50.532  0.00  0.00    +0.000 A 
BRANCH  12  22
ATOM     18  C   UNL     1      30.294  10.236  47.551  0.00  0.00    +0.000 C 
ATOM     19  N   UNL     1      28.929   9.893  47.947  0.00  0.00    +0.000 N 
ATOM     20  C   UNL     1      28.441   8.726  47.170  0.00  0.00    +0.000 C 
ATOM     21  C   UNL     1      27.041   8.238  47.619  0.00  0.00    +0.000 C 
ATOM     22  N   UNL     1      27.101   7.924  49.055  0.00  0.00    +0.000 N 
ATOM     23  C   UNL     1      27.488   9.097  49.861  0.00  0.00    +0.000 C 
ATOM     24  C   UNL     1      28.880   9.581  49.396  0.00  0.00    +0.000 C 
ATOM     25  H   UNL     1      28.328  10.694  47.755  0.00  0.00    +0.000 HD
ENDBRANCH  12  22
ENDBRANCH   1  15
BRANCH   8  26
ATOM     26  C   UNL     1      20.512   0.057  52.444  0.00  0.00    +0.000 C 
ATOM     27  C   UNL     1      20.546   0.605  53.872  0.00  0.00    +0.000 C 
ATOM     28  C   UNL     1      21.479  -0.337  54.632  0.00  0.00    +0.000 C 
ATOM     29  C   UNL     1      22.244  -1.139  53.579  0.00  0.00    +0.000 C 
ATOM     30  C   UNL     1      21.926  -0.489  52.237  0.00  0.00    +0.000 C 
ENDBRANCH   8  26
BRANCH   7  31
ATOM     31  C   UNL     1      17.788  -0.146  50.932  0.00  0.00    +0.000 C 
BRANCH  31  32
ATOM     32  N   UNL     1      17.506  -0.385  52.337  0.00  0.00    +0.000 N 
ATOM     33  H   UNL     1      17.661   0.322  53.004  0.00  0.00    +0.000 HD
BRANCH  32  34
ATOM     34  C   UNL     1      17.013  -1.634  52.729  0.00  0.00    +0.000 A 
ATOM     35  C   UNL     1      15.788  -2.149  52.286  0.00  0.00    +0.000 A 
ATOM     36  C   UNL     1      15.368  -3.436  52.640  0.00  0.00    +0.000 A 
ATOM     37  C   UNL     1      16.180  -4.240  53.434  0.00  0.00    +0.000 A 
ATOM     38  C   UNL     1      17.414  -3.762  53.859  0.00  0.00    +0.000 A 
ATOM     39  C   UNL     1      17.831  -2.477  53.494  0.00  0.00    +0.000 A 
ENDBRANCH  32  34
ENDBRANCH  31  32
ENDBRANCH   7  31
TORSDOF 6
ENDMDL
MODEL 3
REMARK VINA RESULT:    -9.342      3.875     11.664
REMARK INTER + INTRA:         -12.553
REMARK INTER:                 -11.799
REMARK INTRA:                  -0.755
REMARK UNBOUND:                 0.065
REMARK  Name = 
REMARK  7 active torsions:
REMARK  status: ('A' for Active; 'I' for Inactive)
REMARK    1  A    between atoms: C_1  and  N_2
REMARK    2  A    between atoms: N_5  and  C_6
REMARK    3  A    between atoms: C_9  and  N_10
REMARK    4  A    between atoms: C_16  and  C_17
REMARK    5  A    between atoms: C_17  and  N_18
REMARK    6  A    between atoms: N_18  and  C_19
REMARK    7  A    between atoms: N_25  and  C_26
REMARK                            x       y       z     vdW  Elec       q    Type
REMARK                         _______ _______ _______ _____ _____    ______ ____
ROOT
ATOM      1  N   UNL     1      20.021   0.330  52.351  0.00  0.00    +0.000 N 
ATOM      2  C   UNL     1      19.162   1.341  51.928  0.00  0.00    +0.000 A 
ATOM      3  N   UNL     1      19.619   2.612  51.929  0.00  0.00    +0.000 NA
ATOM      4  C   UNL     1      18.801   3.619  51.581  0.00  0.00    +0.000 A 
ATOM      5  C   UNL     1      17.500   3.335  51.208  0.00  0.00    +0.000 A 
ATOM      6  C   UNL     1      16.381   4.087  50.806  0.00  0.00    +0.000 A 
ATOM      7  C   UNL     1      15.330   3.213  50.593  0.00  0.00    +0.000 A 
ATOM      8  N   UNL     1      15.804   1.927  50.825  0.00  0.00    +0.000 N 
ATOM      9  C   UNL     1      17.125   2.003  51.232  0.00  0.00    +0.000 A 
ATOM     10  N   UNL     1      17.911   0.972  51.594  0.00  0.00    +0.000 NA
ATOM     11  H   UNL     1      19.590  -0.515  52.614  0.00  0.00    +0.000 HD
ENDROOT
BRANCH   1  15
ATOM     12  C   UNL     1      24.235   0.595  52.803  0.00  0.00    +0.000 A 
ATOM     13  C   UNL     1      23.451  -0.217  53.638  0.00  0.00    +0.000 A 
ATOM     14  C   UNL     1      22.065  -0.342  53.465  0.00  0.00    +0.000 A 
ATOM     15  C   UNL     1      21.417   0.360  52.451  0.00  0.00    +0.000 A 
ATOM     16  C   UNL     1      22.195   1.168  51.616  0.00  0.00    +0.000 A 
ATOM     17  C   UNL     1      23.583   1.271  51.775  0.00  0.00    +0.000 A 
BRANCH  12  22
ATOM     18  C   UNL     1      29.637   1.144  54.150  0.00  0.00    +0.000 C 
ATOM     19  N   UNL     1      28.488   0.895  53.281  0.00  0.00    +0.000 N 
ATOM     20  C   UNL     1      27.734  -0.296  53.747  0.00  0.00    +0.000 C 
ATOM     21  C   UNL     1      26.438  -0.551  52.937  0.00  0.00    +0.000 C 
ATOM     22  N   UNL     1      25.604   0.659  53.010  0.00  0.00    +0.000 N 
ATOM     23  C   UNL     1      26.295   1.840  52.460  0.00  0.00    +0.000 C 
ATOM     24  C   UNL     1      27.591   2.077  53.267  0.00  0.00    +0.000 C 
ATOM     25  H   UNL     1      28.830   0.722  52.337  0.00  0.00    +0.000 HD
ENDBRANCH  12  22
ENDBRANCH   1  15
BRANCH   8  26
ATOM     26  C   UNL     1      15.042   0.699  50.686  0.00  0.00    +0.000 C 
ATOM     27  C   UNL     1      14.840  -0.097  51.978  0.00  0.00    +0.000 C 
ATOM     28  C   UNL     1      14.457  -1.502  51.517  0.00  0.00    +0.000 C 
ATOM     29  C   UNL     1      14.818  -1.591  50.034  0.00  0.00    +0.000 C 
ATOM     30  C   UNL     1      15.621  -0.334  49.718  0.00  0.00    +0.000 C 
ENDBRANCH   8  26
BRANCH   7  31
ATOM     31  C   UNL     1      13.934   3.576  50.194  0.00  0.00    +0.000 C 
BRANCH  31  32
ATOM     32  N   UNL     1      13.297   4.448  51.166  0.00  0.00    +0.000 N 
ATOM     33  H   UNL     1      13.191   5.409  50.980  0.00  0.00    +0.000 HD
BRANCH  32  34
ATOM     34  C   UNL     1      12.838   3.904  52.370  0.00  0.00    +0.000 A 
ATOM     35  C   UNL     1      12.736   4.641  53.556  0.00  0.00    +0.000 A 
ATOM     36  C   UNL     1      12.197   4.079  54.719  0.00  0.00    +0.000 A 
ATOM     37  C   UNL     1      11.733   2.768  54.709  0.00  0.00    +0.000 A 
ATOM     38  C   UNL     1      11.794   2.028  53.534  0.00  0.00    +0.000 A 
ATOM     39  C   UNL     1      12.327   2.599  52.373  0.00  0.00    +0.000 A 
ENDBRANCH  32  34
ENDBRANCH  31  32
ENDBRANCH   7  31
TORSDOF 6
ENDMDL
MODEL 4
REMARK VINA RESULT:    -9.329      4.054     12.290
REMARK INTER + INTRA:         -12.536
REMARK INTER:                 -11.918
REMARK INTRA:                  -0.618
REMARK UNBOUND:                 0.065
REMARK  Name = 
REMARK  7 active torsions:
REMARK  status: ('A' for Active; 'I' for Inactive)
REMARK    1  A    between atoms: C_1  and  N_2
REMARK    2  A    between atoms: N_5  and  C_6
REMARK    3  A    between atoms: C_9  and  N_10
REMARK    4  A    between atoms: C_16  and  C_17
REMARK    5  A    between atoms: C_17  and  N_18
REMARK    6  A    between atoms: N_18  and  C_19
REMARK    7  A    between atoms: N_25  and  C_26
REMARK                            x       y       z     vdW  Elec       q    Type
REMARK                         _______ _______ _______ _____ _____    ______ ____
ROOT
ATOM      1  N   UNL     1      23.524   3.426  49.478  0.00  0.00    +0.000 N 
ATOM      2  C   UNL     1      23.239   2.676  50.616  0.00  0.00    +0.000 A 
ATOM      3  N   UNL     1      24.271   2.255  51.381  0.00  0.00    +0.000 NA
ATOM      4  C   UNL     1      24.039   1.482  52.455  0.00  0.00    +0.000 A 
ATOM      5  C   UNL     1      22.736   1.143  52.773  0.00  0.00    +0.000 A 
ATOM      6  C   UNL     1      22.112   0.373  53.772  0.00  0.00    +0.000 A 
ATOM      7  C   UNL     1      20.749   0.385  53.535  0.00  0.00    +0.000 A 
ATOM      8  N   UNL     1      20.527   1.187  52.422  0.00  0.00    +0.000 N 
ATOM      9  C   UNL     1      21.746   1.626  51.935  0.00  0.00    +0.000 A 
ATOM     10  N   UNL     1      21.945   2.385  50.842  0.00  0.00    +0.000 NA
ATOM     11  H   UNL     1      22.809   3.467  48.804  0.00  0.00    +0.000 HD
ENDROOT
BRANCH   1  15
ATOM     12  C   UNL     1      27.096   5.607  48.762  0.00  0.00    +0.000 A 
ATOM     13  C   UNL     1      27.116   4.239  49.080  0.00  0.00    +0.000 A 
ATOM     14  C   UNL     1      25.937   3.505  49.274  0.00  0.00    +0.000 A 
ATOM     15  C   UNL     1      24.695   4.127  49.169  0.00  0.00    +0.000 A 
ATOM     16  C   UNL     1      24.672   5.489  48.849  0.00  0.00    +0.000 A 
ATOM     17  C   UNL     1      25.851   6.214  48.631  0.00  0.00    +0.000 A 
BRANCH  12  22
ATOM     18  C   UNL     1      31.859   8.529  48.489  0.00  0.00    +0.000 C 
ATOM     19  N   UNL     1      30.727   7.757  47.982  0.00  0.00    +0.000 N 
ATOM     20  C   UNL     1      30.741   6.384  48.545  0.00  0.00    +0.000 C 
ATOM     21  C   UNL     1      29.503   5.545  48.137  0.00  0.00    +0.000 C 
ATOM     22  N   UNL     1      28.295   6.272  48.559  0.00  0.00    +0.000 N 
ATOM     23  C   UNL     1      28.206   7.604  47.933  0.00  0.00    +0.000 C 
ATOM     24  C   UNL     1      29.451   8.426  48.337  0.00  0.00    +0.000 C 
ATOM     25  H   UNL     1      30.805   7.699  46.967  0.00  0.00    +0.000 HD
ENDBRANCH  12  22
ENDBRANCH   1  15
BRANCH   8  26
ATOM     26  C   UNL     1      19.234   1.502  51.842  0.00  0.00    +0.000 C 
ATOM     27  C   UNL     1      18.996   0.953  50.433  0.00  0.00    +0.000 C 
ATOM     28  C   UNL     1      17.834   1.779  49.882  0.00  0.00    +0.000 C 
ATOM     29  C   UNL     1      17.693   2.999  50.792  0.00  0.00    +0.000 C 
ATOM     30  C   UNL     1      18.915   2.991  51.703  0.00  0.00    +0.000 C 
ENDBRANCH   8  26
BRANCH   7  31
ATOM     31  C   UNL     1      19.700  -0.336  54.322  0.00  0.00    +0.000 C 
BRANCH  31  32
ATOM     32  N   UNL     1      19.476  -1.685  53.829  0.00  0.00    +0.000 N 
ATOM     33  H   UNL     1      20.226  -2.318  53.752  0.00  0.00    +0.000 HD
BRANCH  32  34
ATOM     34  C   UNL     1      18.182  -2.069  53.465  0.00  0.00    +0.000 A 
ATOM     35  C   UNL     1      17.295  -1.228  52.781  0.00  0.00    +0.000 A 
ATOM     36  C   UNL     1      16.037  -1.679  52.366  0.00  0.00    +0.000 A 
ATOM     37  C   UNL     1      15.650  -2.992  52.615  0.00  0.00    +0.000 A 
ATOM     38  C   UNL     1      16.527  -3.854  53.264  0.00  0.00    +0.000 A 
ATOM     39  C   UNL     1      17.787  -3.398  53.669  0.00  0.00    +0.000 A 
ENDBRANCH  32  34
ENDBRANCH  31  32
ENDBRANCH   7  31
TORSDOF 6
ENDMDL
MODEL 5
REMARK VINA RESULT:    -9.256      4.754     13.162
REMARK INTER + INTRA:         -12.437
REMARK INTER:                 -11.687
REMARK INTRA:                  -0.750
REMARK UNBOUND:                 0.065
REMARK  Name = 
REMARK  7 active torsions:
REMARK  status: ('A' for Active; 'I' for Inactive)
REMARK    1  A    between atoms: C_1  and  N_2
REMARK    2  A    between atoms: N_5  and  C_6
REMARK    3  A    between atoms: C_9  and  N_10
REMARK    4  A    between atoms: C_16  and  C_17
REMARK    5  A    between atoms: C_17  and  N_18
REMARK    6  A    between atoms: N_18  and  C_19
REMARK    7  A    between atoms: N_25  and  C_26
REMARK                            x       y       z     vdW  Elec       q    Type
REMARK                         _______ _______ _______ _____ _____    ______ ____
ROOT
ATOM      1  N   UNL     1      25.000   4.183  50.624  0.00  0.00    +0.000 N 
ATOM      2  C   UNL     1      23.827   3.507  50.297  0.00  0.00    +0.000 A 
ATOM      3  N   UNL     1      23.242   3.779  49.109  0.00  0.00    +0.000 NA
ATOM      4  C   UNL     1      22.081   3.187  48.784  0.00  0.00    +0.000 A 
ATOM      5  C   UNL     1      21.508   2.290  49.668  0.00  0.00    +0.000 A 
ATOM      6  C   UNL     1      20.339   1.508  49.692  0.00  0.00    +0.000 A 
ATOM      7  C   UNL     1      20.305   0.824  50.894  0.00  0.00    +0.000 A 
ATOM      8  N   UNL     1      21.461   1.150  51.592  0.00  0.00    +0.000 N 
ATOM      9  C   UNL     1      22.184   2.073  50.856  0.00  0.00    +0.000 A 
ATOM     10  N   UNL     1      23.337   2.661  51.222  0.00  0.00    +0.000 NA
ATOM     11  H   UNL     1      25.237   4.190  51.579  0.00  0.00    +0.000 HD
ENDROOT
BRANCH   1  15
ATOM     12  C   UNL     1      27.809   6.274  48.222  0.00  0.00    +0.000 A 
ATOM     13  C   UNL     1      27.946   4.904  48.498  0.00  0.00    +0.000 A 
ATOM     14  C   UNL     1      26.998   4.200  49.254  0.00  0.00    +0.000 A 
ATOM     15  C   UNL     1      25.884   4.856  49.772  0.00  0.00    +0.000 A 
ATOM     16  C   UNL     1      25.742   6.220  49.496  0.00  0.00    +0.000 A 
ATOM     17  C   UNL     1      26.677   6.915  48.719  0.00  0.00    +0.000 A 
BRANCH  12  22
ATOM     18  C   UNL     1      31.800   8.299  44.865  0.00  0.00    +0.000 C 
ATOM     19  N   UNL     1      30.869   8.291  45.992  0.00  0.00    +0.000 N 
ATOM     20  C   UNL     1      29.468   8.226  45.507  0.00  0.00    +0.000 C 
ATOM     21  C   UNL     1      28.432   8.100  46.654  0.00  0.00    +0.000 C 
ATOM     22  N   UNL     1      28.768   6.909  47.449  0.00  0.00    +0.000 N 
ATOM     23  C   UNL     1      30.122   6.995  48.026  0.00  0.00    +0.000 C 
ATOM     24  C   UNL     1      31.144   7.131  46.875  0.00  0.00    +0.000 C 
ATOM     25  H   UNL     1      30.997   9.154  46.521  0.00  0.00    +0.000 HD
ENDBRANCH  12  22
ENDBRANCH   1  15
BRANCH   8  26
ATOM     26  C   UNL     1      21.848   0.630  52.891  0.00  0.00    +0.000 C 
ATOM     27  C   UNL     1      22.367  -0.810  52.894  0.00  0.00    +0.000 C 
ATOM     28  C   UNL     1      22.254  -1.265  54.348  0.00  0.00    +0.000 C 
ATOM     29  C   UNL     1      21.341  -0.261  55.052  0.00  0.00    +0.000 C 
ATOM     30  C   UNL     1      20.748   0.615  53.954  0.00  0.00    +0.000 C 
ENDBRANCH   8  26
BRANCH   7  31
ATOM     31  C   UNL     1      19.221  -0.094  51.367  0.00  0.00    +0.000 C 
BRANCH  31  32
ATOM     32  N   UNL     1      17.956   0.164  50.702  0.00  0.00    +0.000 N 
ATOM     33  H   UNL     1      17.832  -0.076  49.755  0.00  0.00    +0.000 HD
BRANCH  32  34
ATOM     34  C   UNL     1      16.917   0.759  51.424  0.00  0.00    +0.000 A 
ATOM     35  C   UNL     1      16.614   2.125  51.351  0.00  0.00    +0.000 A 
ATOM     36  C   UNL     1      15.517   2.665  52.030  0.00  0.00    +0.000 A 
ATOM     37  C   UNL     1      14.689   1.840  52.785  0.00  0.00    +0.000 A 
ATOM     38  C   UNL     1      14.951   0.477  52.847  0.00  0.00    +0.000 A 
ATOM     39  C   UNL     1      16.046  -0.058  52.158  0.00  0.00    +0.000 A 
ENDBRANCH  32  34
ENDBRANCH  31  32
ENDBRANCH   7  31
TORSDOF 6
ENDMDL
MODEL 6
REMARK VINA RESULT:    -9.053      3.732     11.383
REMARK INTER + INTRA:         -12.163
REMARK INTER:                 -11.829
REMARK INTRA:                  -0.334
REMARK UNBOUND:                 0.065
REMARK  Name = 
REMARK  7 active torsions:
REMARK  status: ('A' for Active; 'I' for Inactive)
REMARK    1  A    between atoms: C_1  and  N_2
REMARK    2  A    between atoms: N_5  and  C_6
REMARK    3  A    between atoms: C_9  and  N_10
REMARK    4  A    between atoms: C_16  and  C_17
REMARK    5  A    between atoms: C_17  and  N_18
REMARK    6  A    between atoms: N_18  and  C_19
REMARK    7  A    between atoms: N_25  and  C_26
REMARK                            x       y       z     vdW  Elec       q    Type
REMARK                         _______ _______ _______ _____ _____    ______ ____
ROOT
ATOM      1  N   UNL     1      20.482   1.267  51.043  0.00  0.00    +0.000 N 
ATOM      2  C   UNL     1      19.281   0.740  51.512  0.00  0.00    +0.000 A 
ATOM      3  N   UNL     1      19.331  -0.301  52.373  0.00  0.00    +0.000 NA
ATOM      4  C   UNL     1      18.194  -0.871  52.803  0.00  0.00    +0.000 A 
ATOM      5  C   UNL     1      16.980  -0.368  52.369  0.00  0.00    +0.000 A 
ATOM      6  C   UNL     1      15.626  -0.688  52.576  0.00  0.00    +0.000 A 
ATOM      7  C   UNL     1      14.859   0.183  51.824  0.00  0.00    +0.000 A 
ATOM      8  N   UNL     1      15.728   1.059  51.185  0.00  0.00    +0.000 N 
ATOM      9  C   UNL     1      17.029   0.703  51.494  0.00  0.00    +0.000 A 
ATOM     10  N   UNL     1      18.150   1.285  51.028  0.00  0.00    +0.000 NA
ATOM     11  H   UNL     1      20.420   1.807  50.223  0.00  0.00    +0.000 HD
ENDROOT
BRANCH   1  15
ATOM     12  C   UNL     1      24.418   0.687  52.527  0.00  0.00    +0.000 A 
ATOM     13  C   UNL     1      24.132   1.646  51.542  0.00  0.00    +0.000 A 
ATOM     14  C   UNL     1      22.828   1.872  51.081  0.00  0.00    +0.000 A 
ATOM     15  C   UNL     1      21.764   1.127  51.586  0.00  0.00    +0.000 A 
ATOM     16  C   UNL     1      22.045   0.172  52.569  0.00  0.00    +0.000 A 
ATOM     17  C   UNL     1      23.345  -0.033  53.047  0.00  0.00    +0.000 A 
BRANCH  12  22
ATOM     18  C   UNL     1      29.843  -0.025  53.692  0.00  0.00    +0.000 C 
ATOM     19  N   UNL     1      28.408   0.036  53.963  0.00  0.00    +0.000 N 
ATOM     20  C   UNL     1      27.888   1.401  53.700  0.00  0.00    +0.000 C 
ATOM     21  C   UNL     1      26.351   1.508  53.859  0.00  0.00    +0.000 C 
ATOM     22  N   UNL     1      25.725   0.527  52.959  0.00  0.00    +0.000 N 
ATOM     23  C   UNL     1      26.149  -0.852  53.265  0.00  0.00    +0.000 C 
ATOM     24  C   UNL     1      27.685  -0.943  53.115  0.00  0.00    +0.000 C 
ATOM     25  H   UNL     1      28.256  -0.193  54.945  0.00  0.00    +0.000 HD
ENDBRANCH  12  22
ENDBRANCH   1  15
BRANCH   8  26
ATOM     26  C   UNL     1      15.346   2.159  50.318  0.00  0.00    +0.000 C 
ATOM     27  C   UNL     1      15.744   2.004  48.848  0.00  0.00    +0.000 C 
ATOM     28  C   UNL     1      15.673   3.417  48.271  0.00  0.00    +0.000 C 
ATOM     29  C   UNL     1      15.624   4.375  49.462  0.00  0.00    +0.000 C 
ATOM     30  C   UNL     1      15.911   3.529  50.697  0.00  0.00    +0.000 C 
ENDBRANCH   8  26
BRANCH   7  31
ATOM     31  C   UNL     1      13.367   0.184  51.706  0.00  0.00    +0.000 C 
BRANCH  31  32
ATOM     32  N   UNL     1      12.721   0.599  52.940  0.00  0.00    +0.000 N 
ATOM     33  H   UNL     1      12.434  -0.071  53.602  0.00  0.00    +0.000 HD
BRANCH  32  34
ATOM     34  C   UNL     1      12.512   1.961  53.172  0.00  0.00    +0.000 A 
ATOM     35  C   UNL     1      12.340   2.504  54.452  0.00  0.00    +0.000 A 
ATOM     36  C   UNL     1      12.212   3.884  54.647  0.00  0.00    +0.000 A 
ATOM     37  C   UNL     1      12.270   4.750  53.559  0.00  0.00    +0.000 A 
ATOM     38  C   UNL     1      12.471   4.236  52.283  0.00  0.00    +0.000 A 
ATOM     39  C   UNL     1      12.607   2.856  52.097  0.00  0.00    +0.000 A 
ENDBRANCH  32  34
ENDBRANCH  31  32
ENDBRANCH   7  31
TORSDOF 6
ENDMDL
MODEL 7
REMARK VINA RESULT:    -8.944      2.262      3.661
REMARK INTER + INTRA:         -12.017
REMARK INTER:                 -11.718
REMARK INTRA:                  -0.299
REMARK UNBOUND:                 0.065
REMARK  Name = 
REMARK  7 active torsions:
REMARK  status: ('A' for Active; 'I' for Inactive)
REMARK    1  A    between atoms: C_1  and  N_2
REMARK    2  A    between atoms: N_5  and  C_6
REMARK    3  A    between atoms: C_9  and  N_10
REMARK    4  A    between atoms: C_16  and  C_17
REMARK    5  A    between atoms: C_17  and  N_18
REMARK    6  A    between atoms: N_18  and  C_19
REMARK    7  A    between atoms: N_25  and  C_26
REMARK                            x       y       z     vdW  Elec       q    Type
REMARK                         _______ _______ _______ _____ _____    ______ ____
ROOT
ATOM      1  N   UNL     1      19.080   0.208  52.585  0.00  0.00    +0.000 N 
ATOM      2  C   UNL     1      20.471   0.269  52.575  0.00  0.00    +0.000 A 
ATOM      3  N   UNL     1      21.162  -0.781  53.071  0.00  0.00    +0.000 NA
ATOM      4  C   UNL     1      22.503  -0.734  53.129  0.00  0.00    +0.000 A 
ATOM      5  C   UNL     1      23.160   0.390  52.660  0.00  0.00    +0.000 A 
ATOM      6  C   UNL     1      24.501   0.805  52.565  0.00  0.00    +0.000 A 
ATOM      7  C   UNL     1      24.519   2.076  52.020  0.00  0.00    +0.000 A 
ATOM      8  N   UNL     1      23.204   2.430  51.744  0.00  0.00    +0.000 N 
ATOM      9  C   UNL     1      22.368   1.411  52.165  0.00  0.00    +0.000 A 
ATOM     10  N   UNL     1      21.024   1.405  52.110  0.00  0.00    +0.000 NA
ATOM     11  H   UNL     1      18.613   1.069  52.497  0.00  0.00    +0.000 HD
ENDROOT
BRANCH   1  15
ATOM     12  C   UNL     1      16.489  -3.113  53.127  0.00  0.00    +0.000 A 
ATOM     13  C   UNL     1      16.144  -2.033  52.298  0.00  0.00    +0.000 A 
ATOM     14  C   UNL     1      17.014  -0.955  52.082  0.00  0.00    +0.000 A 
ATOM     15  C   UNL     1      18.259  -0.920  52.705  0.00  0.00    +0.000 A 
ATOM     16  C   UNL     1      18.607  -1.996  53.529  0.00  0.00    +0.000 A 
ATOM     17  C   UNL     1      17.746  -3.084  53.724  0.00  0.00    +0.000 A 
BRANCH  12  22
ATOM     18  C   UNL     1      12.627  -7.017  54.197  0.00  0.00    +0.000 C 
ATOM     19  N   UNL     1      13.869  -6.470  53.653  0.00  0.00    +0.000 N 
ATOM     20  C   UNL     1      13.576  -5.401  52.666  0.00  0.00    +0.000 C 
ATOM     21  C   UNL     1      14.850  -4.698  52.134  0.00  0.00    +0.000 C 
ATOM     22  N   UNL     1      15.594  -4.160  53.283  0.00  0.00    +0.000 N 
ATOM     23  C   UNL     1      15.985  -5.219  54.232  0.00  0.00    +0.000 C 
ATOM     24  C   UNL     1      14.707  -5.919  54.747  0.00  0.00    +0.000 C 
ATOM     25  H   UNL     1      14.375  -7.221  53.187  0.00  0.00    +0.000 HD
ENDBRANCH  12  22
ENDBRANCH   1  15
BRANCH   8  26
ATOM     26  C   UNL     1      22.765   3.673  51.134  0.00  0.00    +0.000 C 
ATOM     27  C   UNL     1      22.257   4.738  52.109  0.00  0.00    +0.000 C 
ATOM     28  C   UNL     1      21.446   5.704  51.246  0.00  0.00    +0.000 C 
ATOM     29  C   UNL     1      21.182   4.991  49.919  0.00  0.00    +0.000 C 
ATOM     30  C   UNL     1      21.628   3.547  50.119  0.00  0.00    +0.000 C 
ENDBRANCH   8  26
BRANCH   7  31
ATOM     31  C   UNL     1      25.728   2.925  51.776  0.00  0.00    +0.000 C 
BRANCH  31  32
ATOM     32  N   UNL     1      26.113   2.940  50.375  0.00  0.00    +0.000 N 
ATOM     33  H   UNL     1      26.201   2.097  49.874  0.00  0.00    +0.000 HD
BRANCH  32  34
ATOM     34  C   UNL     1      26.356   4.166  49.750  0.00  0.00    +0.000 A 
ATOM     35  C   UNL     1      27.513   4.433  49.006  0.00  0.00    +0.000 A 
ATOM     36  C   UNL     1      27.681   5.647  48.331  0.00  0.00    +0.000 A 
ATOM     37  C   UNL     1      26.681   6.614  48.375  0.00  0.00    +0.000 A 
ATOM     38  C   UNL     1      25.511   6.358  49.081  0.00  0.00    +0.000 A 
ATOM     39  C   UNL     1      25.346   5.139  49.747  0.00  0.00    +0.000 A 
ENDBRANCH  32  34
ENDBRANCH  31  32
ENDBRANCH   7  31
TORSDOF 6
ENDMDL
MODEL 8
REMARK VINA RESULT:    -8.735      4.218     12.882
REMARK INTER + INTRA:         -11.733
REMARK INTER:                 -10.957
REMARK INTRA:                  -0.776
REMARK UNBOUND:                 0.065
REMARK  Name = 
REMARK  7 active torsions:
REMARK  status: ('A' for Active; 'I' for Inactive)
REMARK    1  A    between atoms: C_1  and  N_2
REMARK    2  A    between atoms: N_5  and  C_6
REMARK    3  A    between atoms: C_9  and  N_10
REMARK    4  A    between atoms: C_16  and  C_17
REMARK    5  A    between atoms: C_17  and  N_18
REMARK    6  A    between atoms: N_18  and  C_19
REMARK    7  A    between atoms: N_25  and  C_26
REMARK                            x       y       z     vdW  Elec       q    Type
REMARK                         _______ _______ _______ _____ _____    ______ ____
ROOT
ATOM      1  N   UNL     1      23.800   3.939  51.335  0.00  0.00    +0.000 N 
ATOM      2  C   UNL     1      22.574   3.384  50.980  0.00  0.00    +0.000 A 
ATOM      3  N   UNL     1      21.848   3.994  50.017  0.00  0.00    +0.000 NA
ATOM      4  C   UNL     1      20.636   3.519  49.688  0.00  0.00    +0.000 A 
ATOM      5  C   UNL     1      20.154   2.394  50.333  0.00  0.00    +0.000 A 
ATOM      6  C   UNL     1      18.973   1.631  50.278  0.00  0.00    +0.000 A 
ATOM      7  C   UNL     1      19.072   0.618  51.214  0.00  0.00    +0.000 A 
ATOM      8  N   UNL     1      20.320   0.728  51.817  0.00  0.00    +0.000 N 
ATOM      9  C   UNL     1      20.970   1.835  51.300  0.00  0.00    +0.000 A 
ATOM     10  N   UNL     1      22.180   2.295  51.668  0.00  0.00    +0.000 NA
ATOM     11  H   UNL     1      24.159   3.661  52.208  0.00  0.00    +0.000 HD
ENDROOT
BRANCH   1  15
ATOM     12  C   UNL     1      26.353   6.654  49.300  0.00  0.00    +0.000 A 
ATOM     13  C   UNL     1      26.370   5.277  49.027  0.00  0.00    +0.000 A 
ATOM     14  C   UNL     1      25.499   4.382  49.665  0.00  0.00    +0.000 A 
ATOM     15  C   UNL     1      24.587   4.843  50.612  0.00  0.00    +0.000 A 
ATOM     16  C   UNL     1      24.566   6.216  50.884  0.00  0.00    +0.000 A 
ATOM     17  C   UNL     1      25.420   7.110  50.226  0.00  0.00    +0.000 A 
BRANCH  12  22
ATOM     18  C   UNL     1      29.511   9.961  46.075  0.00  0.00    +0.000 C 
ATOM     19  N   UNL     1      29.190   9.113  47.222  0.00  0.00    +0.000 N 
ATOM     20  C   UNL     1      28.078   9.702  48.008  0.00  0.00    +0.000 C 
ATOM     21  C   UNL     1      27.611   8.796  49.175  0.00  0.00    +0.000 C 
ATOM     22  N   UNL     1      27.224   7.490  48.619  0.00  0.00    +0.000 N 
ATOM     23  C   UNL     1      28.344   6.837  47.916  0.00  0.00    +0.000 C 
ATOM     24  C   UNL     1      28.808   7.754  46.763  0.00  0.00    +0.000 C 
ATOM     25  H   UNL     1      30.017   9.047  47.815  0.00  0.00    +0.000 HD
ENDBRANCH  12  22
ENDBRANCH   1  15
BRANCH   8  26
ATOM     26  C   UNL     1      20.855  -0.155  52.838  0.00  0.00    +0.000 C 
ATOM     27  C   UNL     1      20.727   0.353  54.276  0.00  0.00    +0.000 C 
ATOM     28  C   UNL     1      21.738  -0.471  55.074  0.00  0.00    +0.000 C 
ATOM     29  C   UNL     1      22.669  -1.129  54.055  0.00  0.00    +0.000 C 
ATOM     30  C   UNL     1      22.342  -0.492  52.709  0.00  0.00    +0.000 C 
ENDBRANCH   8  26
BRANCH   7  31
ATOM     31  C   UNL     1      18.030  -0.409  51.532  0.00  0.00    +0.000 C 
BRANCH  31  32
ATOM     32  N   UNL     1      16.701   0.017  51.126  0.00  0.00    +0.000 N 
ATOM     33  H   UNL     1      16.330   0.868  51.451  0.00  0.00    +0.000 HD
BRANCH  32  34
ATOM     34  C   UNL     1      15.959  -0.801  50.269  0.00  0.00    +0.000 A 
ATOM     35  C   UNL     1      16.193  -0.881  48.890  0.00  0.00    +0.000 A 
ATOM     36  C   UNL     1      15.478  -1.771  48.080  0.00  0.00    +0.000 A 
ATOM     37  C   UNL     1      14.523  -2.612  48.642  0.00  0.00    +0.000 A 
ATOM     38  C   UNL     1      14.296  -2.572  50.013  0.00  0.00    +0.000 A 
ATOM     39  C   UNL     1      15.020  -1.685  50.818  0.00  0.00    +0.000 A 
ENDBRANCH  32  34
ENDBRANCH  31  32
ENDBRANCH   7  31
TORSDOF 6
ENDMDL
MODEL 9
REMARK VINA RESULT:    -8.365      4.125     11.960
REMARK INTER + INTRA:         -11.234
REMARK INTER:                 -10.396
REMARK INTRA:                  -0.837
REMARK UNBOUND:                 0.065
REMARK  Name = 
REMARK  7 active torsions:
REMARK  status: ('A' for Active; 'I' for Inactive)
REMARK    1  A    between atoms: C_1  and  N_2
REMARK    2  A    between atoms: N_5  and  C_6
REMARK    3  A    between atoms: C_9  and  N_10
REMARK    4  A    between atoms: C_16  and  C_17
REMARK    5  A    between atoms: C_17  and  N_18
REMARK    6  A    between atoms: N_18  and  C_19
REMARK    7  A    between atoms: N_25  and  C_26
REMARK                            x       y       z     vdW  Elec       q    Type
REMARK                         _______ _______ _______ _____ _____    ______ ____
ROOT
ATOM      1  N   UNL     1      19.928   3.997  49.652  0.00  0.00    +0.000 N 
ATOM      2  C   UNL     1      19.509   2.819  50.264  0.00  0.00    +0.000 A 
ATOM      3  N   UNL     1      20.423   1.844  50.470  0.00  0.00    +0.000 NA
ATOM      4  C   UNL     1      20.044   0.673  51.007  0.00  0.00    +0.000 A 
ATOM      5  C   UNL     1      18.719   0.488  51.359  0.00  0.00    +0.000 A 
ATOM      6  C   UNL     1      17.962  -0.560  51.914  0.00  0.00    +0.000 A 
ATOM      7  C   UNL     1      16.647  -0.141  52.001  0.00  0.00    +0.000 A 
ATOM      8  N   UNL     1      16.596   1.169  51.539  0.00  0.00    +0.000 N 
ATOM      9  C   UNL     1      17.859   1.544  51.116  0.00  0.00    +0.000 A 
ATOM     10  N   UNL     1      18.200   2.723  50.563  0.00  0.00    +0.000 NA
ATOM     11  H   UNL     1      19.215   4.551  49.259  0.00  0.00    +0.000 HD
ENDROOT
BRANCH   1  15
ATOM     12  C   UNL     1      23.954   5.308  49.337  0.00  0.00    +0.000 A 
ATOM     13  C   UNL     1      23.306   4.650  48.280  0.00  0.00    +0.000 A 
ATOM     14  C   UNL     1      21.963   4.254  48.363  0.00  0.00    +0.000 A 
ATOM     15  C   UNL     1      21.229   4.495  49.522  0.00  0.00    +0.000 A 
ATOM     16  C   UNL     1      21.872   5.154  50.576  0.00  0.00    +0.000 A 
ATOM     17  C   UNL     1      23.206   5.571  50.481  0.00  0.00    +0.000 A 
BRANCH  12  22
ATOM     18  C   UNL     1      29.236   6.716  48.146  0.00  0.00    +0.000 C 
ATOM     19  N   UNL     1      28.098   6.368  48.994  0.00  0.00    +0.000 N 
ATOM     20  C   UNL     1      27.022   7.381  48.860  0.00  0.00    +0.000 C 
ATOM     21  C   UNL     1      25.738   7.013  49.646  0.00  0.00    +0.000 C 
ATOM     22  N   UNL     1      25.277   5.695  49.185  0.00  0.00    +0.000 N 
ATOM     23  C   UNL     1      26.293   4.648  49.400  0.00  0.00    +0.000 C 
ATOM     24  C   UNL     1      27.572   5.032  48.621  0.00  0.00    +0.000 C 
ATOM     25  H   UNL     1      28.413   6.346  49.963  0.00  0.00    +0.000 HD
ENDBRANCH  12  22
ENDBRANCH   1  15
BRANCH   8  26
ATOM     26  C   UNL     1      15.413   2.009  51.484  0.00  0.00    +0.000 C 
ATOM     27  C   UNL     1      15.083   2.589  50.107  0.00  0.00    +0.000 C 
ATOM     28  C   UNL     1      14.140   3.758  50.388  0.00  0.00    +0.000 C 
ATOM     29  C   UNL     1      14.255   4.064  51.882  0.00  0.00    +0.000 C 
ATOM     30  C   UNL     1      15.430   3.239  52.394  0.00  0.00    +0.000 C 
ENDBRANCH   8  26
BRANCH   7  31
ATOM     31  C   UNL     1      15.484  -0.945  52.492  0.00  0.00    +0.000 C 
BRANCH  31  32
ATOM     32  N   UNL     1      15.390  -2.234  51.827  0.00  0.00    +0.000 N 
ATOM     33  H   UNL     1      15.308  -2.284  50.847  0.00  0.00    +0.000 HD
BRANCH  32  34
ATOM     34  C   UNL     1      15.418  -3.400  52.597  0.00  0.00    +0.000 A 
ATOM     35  C   UNL     1      14.346  -4.299  52.669  0.00  0.00    +0.000 A 
ATOM     36  C   UNL     1      14.445  -5.494  53.390  0.00  0.00    +0.000 A 
ATOM     37  C   UNL     1      15.631  -5.820  54.041  0.00  0.00    +0.000 A 
ATOM     38  C   UNL     1      16.718  -4.958  53.957  0.00  0.00    +0.000 A 
ATOM     39  C   UNL     1      16.615  -3.768  53.228  0.00  0.00    +0.000 A 
ENDBRANCH  32  34
ENDBRANCH  31  32
ENDBRANCH   7  31
TORSDOF 6
ENDMDL
