MODEL 1
REMARK VINA RESULT:    -8.908      0.000      0.000
REMARK INTER + INTRA:         -16.973
REMARK INTER:                 -14.636
REMARK INTRA:                  -2.338
REMARK UNBOUND:                -2.338
REMARK  Name = 
REMARK  13 active torsions:
REMARK  status: ('A' for Active; 'I' for Inactive)
REMARK    1  A    between atoms: C_1  and  C_2
REMARK    2  A    between atoms: C_3  and  C_4
REMARK    3  A    between atoms: N_6  and  C_7
REMARK    4  A    between atoms: C_10  and  O_11
REMARK    5  A    between atoms: O_11  and  C_12
REMARK    6  A    between atoms: C_15  and  C_16
REMARK    7  A    between atoms: N_18  and  C_19
REMARK    8  A    between atoms: C_32  and  O_33
REMARK    9  A    between atoms: O_33  and  C_34
REMARK   10  A    between atoms: C_34  and  C_35
REMARK   11  A    between atoms: C_35  and  C_36
REMARK   12  A    between atoms: C_36  and  N_37
REMARK   13  A    between atoms: N_40  and  C_41
REMARK                            x       y       z     vdW  Elec       q    Type
REMARK                         _______ _______ _______ _____ _____    ______ ____
ROOT
ATOM      1  C   UNL     1      19.344   1.880  51.801  0.00  0.00    +0.000 A 
ATOM      2  C   UNL     1      20.176   3.037  51.944  0.00  0.00    +0.000 A 
ATOM      3  C   UNL     1      20.150   4.121  51.004  0.00  0.00    +0.000 A 
ATOM      4  C   UNL     1      20.982   5.293  51.024  0.00  0.00    +0.000 A 
ATOM      5  C   UNL     1      20.704   6.339  50.141  0.00  0.00    +0.000 A 
ATOM      6  C   UNL     1      19.737   6.141  49.180  0.00  0.00    +0.000 A 
ATOM      7  N   UNL     1      19.031   5.005  49.058  0.00  0.00    +0.000 NA
ATOM      8  C   UNL     1      19.223   4.030  49.958  0.00  0.00    +0.000 A 
ATOM      9  C   UNL     1      18.445   2.885  49.820  0.00  0.00    +0.000 A 
ATOM     10  C   UNL     1      18.473   1.788  50.707  0.00  0.00    +0.000 A 
ENDROOT
BRANCH   1  13
ATOM     11  C   UNL     1      20.593  -0.014  52.582  0.00  0.00    +0.000 C 
ATOM     12  O   UNL     1      21.107  -0.256  51.495  0.00  0.00    +0.000 OA
ATOM     13  N   UNL     1      19.523   0.863  52.776  0.00  0.00    +0.000 N 
ATOM     14  H   UNL     1      18.923   0.779  53.551  0.00  0.00    +0.000 HD
BRANCH  11  17
ATOM     15  C   UNL     1      23.025  -1.438  55.515  0.00  0.00    +0.000 C 
ATOM     16  C   UNL     1      21.941  -1.012  54.620  0.00  0.00    +0.000 C 
ATOM     17  C   UNL     1      21.218  -0.605  53.749  0.00  0.00    +0.000 C 
ENDBRANCH  11  17
ENDBRANCH   1  13
BRANCH   4  18
ATOM     18  O   UNL     1      22.034   5.391  51.934  0.00  0.00    +0.000 OA
BRANCH  18  19
ATOM     19  C   UNL     1      23.046   4.437  51.899  0.00  0.00    +0.000 A 
ATOM     20  C   UNL     1      23.407   3.829  53.096  0.00  0.00    +0.000 A 
ATOM     21  C   UNL     1      24.461   2.901  53.120  0.00  0.00    +0.000 A 
ATOM     22  C   UNL     1      25.207   2.554  51.967  0.00  0.00    +0.000 A 
ATOM     23  C   UNL     1      24.786   3.104  50.753  0.00  0.00    +0.000 A 
ATOM     24  C   UNL     1      23.695   4.020  50.723  0.00  0.00    +0.000 A 
BRANCH  22  25
ATOM     25  C   UNL     1      26.377   1.625  52.198  0.00  0.00    +0.000 C 
ATOM     26  O   UNL     1      27.078   1.433  51.198  0.00  0.00    +0.000 OA
ATOM     27  N   UNL     1      26.591   0.968  53.410  0.00  0.00    +0.000 N 
ATOM     28  H   UNL     1      26.083   1.256  54.202  0.00  0.00    +0.000 HD
BRANCH  27  29
ATOM     29  C   UNL     1      27.525  -0.107  53.543  0.00  0.00    +0.000 A 
ATOM     30  C   UNL     1      28.853   0.096  53.916  0.00  0.00    +0.000 A 
ATOM     31  C   UNL     1      29.803  -0.908  53.732  0.00  0.00    +0.000 A 
ATOM     32  C   UNL     1      29.391  -2.144  53.271  0.00  0.00    +0.000 A 
ATOM     33  C   UNL     1      28.032  -2.324  53.071  0.00  0.00    +0.000 A 
ATOM     34  N   UNL     1      27.089  -1.341  53.191  0.00  0.00    +0.000 NA
ENDBRANCH  27  29
ENDBRANCH  22  25
ENDBRANCH  18  19
ENDBRANCH   4  18
BRANCH  10  35
ATOM     35  O   UNL     1      17.612   0.831  50.292  0.00  0.00    +0.000 OA
BRANCH  35  36
ATOM     36  C   UNL     1      16.182   0.881  50.275  0.00  0.00    +0.000 C 
BRANCH  36  37
ATOM     37  C   UNL     1      15.631   1.222  51.656  0.00  0.00    +0.000 C 
BRANCH  37  38
ATOM     38  C   UNL     1      15.566   0.046  52.651  0.00  0.00    +0.000 C 
BRANCH  38  39
ATOM     39  N   UNL     1      16.138  -1.262  52.243  0.00  0.00    +0.000 N 
ATOM     40  C   UNL     1      17.217  -1.685  53.155  0.00  0.00    +0.000 C 
ATOM     41  C   UNL     1      17.429  -3.187  53.468  0.00  0.00    +0.000 C 
ATOM     42  N   UNL     1      16.233  -3.984  53.408  0.00  0.00    +0.000 N 
ATOM     43  C   UNL     1      15.975  -4.991  54.396  0.00  0.00    +0.000 C 
ATOM     44  C   UNL     1      15.344  -3.750  52.299  0.00  0.00    +0.000 C 
ATOM     45  C   UNL     1      15.037  -2.247  52.094  0.00  0.00    +0.000 C 
ATOM     46  H   UNL     1      16.590  -1.180  51.334  0.00  0.00    +0.000 HD
ATOM     47  H   UNL     1      15.588  -4.259  54.148  0.00  0.00    +0.000 HD
ENDBRANCH  38  39
ENDBRANCH  37  38
ENDBRANCH  36  37
ENDBRANCH  35  36
ENDBRANCH  10  35
TORSDOF 11
ENDMDL
MODEL 2
REMARK VINA RESULT:    -8.648      2.007      3.281
REMARK INTER + INTRA:         -16.547
REMARK INTER:                 -14.786
REMARK INTRA:                  -1.761
REMARK UNBOUND:                -2.338
REMARK  Name = 
REMARK  13 active torsions:
REMARK  status: ('A' for Active; 'I' for Inactive)
REMARK    1  A    between atoms: C_1  and  C_2
REMARK    2  A    between atoms: C_3  and  C_4
REMARK    3  A    between atoms: N_6  and  C_7
REMARK    4  A    between atoms: C_10  and  O_11
REMARK    5  A    between atoms: O_11  and  C_12
REMARK    6  A    between atoms: C_15  and  C_16
REMARK    7  A    between atoms: N_18  and  C_19
REMARK    8  A    between atoms: C_32  and  O_33
REMARK    9  A    between atoms: O_33  and  C_34
REMARK   10  A    between atoms: C_34  and  C_35
REMARK   11  A    between atoms: C_35  and  C_36
REMARK   12  A    between atoms: C_36  and  N_37
REMARK   13  A    between atoms: N_40  and  C_41
REMARK                            x       y       z     vdW  Elec       q    Type
REMARK                         _______ _______ _______ _____ _____    ______ ____
ROOT
ATOM      1  C   UNL     1      19.526   2.399  51.801  0.00  0.00    +0.000 A 
ATOM      2  C   UNL     1      20.390   3.541  51.849  0.00  0.00    +0.000 A 
ATOM      3  C   UNL     1      20.325   4.593  50.875  0.00  0.00    +0.000 A 
ATOM      4  C   UNL     1      21.181   5.746  50.801  0.00  0.00    +0.000 A 
ATOM      5  C   UNL     1      20.868   6.767  49.902  0.00  0.00    +0.000 A 
ATOM      6  C   UNL     1      19.837   6.559  49.012  0.00  0.00    +0.000 A 
ATOM      7  N   UNL     1      19.101   5.436  48.975  0.00  0.00    +0.000 NA
ATOM      8  C   UNL     1      19.331   4.488  49.895  0.00  0.00    +0.000 A 
ATOM      9  C   UNL     1      18.522   3.357  49.848  0.00  0.00    +0.000 A 
ATOM     10  C   UNL     1      18.585   2.291  50.769  0.00  0.00    +0.000 A 
ENDROOT
BRANCH   1  13
ATOM     11  C   UNL     1      20.805   0.525  52.582  0.00  0.00    +0.000 C 
ATOM     12  O   UNL     1      21.267   0.246  51.480  0.00  0.00    +0.000 OA
ATOM     13  N   UNL     1      19.748   1.411  52.798  0.00  0.00    +0.000 N 
ATOM     14  H   UNL     1      19.184   1.354  53.602  0.00  0.00    +0.000 HD
BRANCH  11  17
ATOM     15  C   UNL     1      22.819  -1.670  55.350  0.00  0.00    +0.000 C 
ATOM     16  C   UNL     1      22.089  -0.682  54.547  0.00  0.00    +0.000 C 
ATOM     17  C   UNL     1      21.481  -0.033  53.736  0.00  0.00    +0.000 C 
ENDBRANCH  11  17
ENDBRANCH   1  13
BRANCH   4  18
ATOM     18  O   UNL     1      22.292   5.850  51.638  0.00  0.00    +0.000 OA
BRANCH  18  19
ATOM     19  C   UNL     1      23.228   4.821  51.647  0.00  0.00    +0.000 A 
ATOM     20  C   UNL     1      23.530   4.230  52.868  0.00  0.00    +0.000 A 
ATOM     21  C   UNL     1      24.509   3.225  52.936  0.00  0.00    +0.000 A 
ATOM     22  C   UNL     1      25.236   2.781  51.804  0.00  0.00    +0.000 A 
ATOM     23  C   UNL     1      24.869   3.318  50.568  0.00  0.00    +0.000 A 
ATOM     24  C   UNL     1      23.852   4.314  50.494  0.00  0.00    +0.000 A 
BRANCH  22  25
ATOM     25  C   UNL     1      26.329   1.773  52.081  0.00  0.00    +0.000 C 
ATOM     26  O   UNL     1      27.107   1.597  51.136  0.00  0.00    +0.000 OA
ATOM     27  N   UNL     1      26.396   1.039  53.265  0.00  0.00    +0.000 N 
ATOM     28  H   UNL     1      25.834   1.311  54.025  0.00  0.00    +0.000 HD
BRANCH  27  29
ATOM     29  C   UNL     1      27.255  -0.095  53.413  0.00  0.00    +0.000 A 
ATOM     30  C   UNL     1      28.572   0.017  53.856  0.00  0.00    +0.000 A 
ATOM     31  C   UNL     1      29.468  -1.039  53.692  0.00  0.00    +0.000 A 
ATOM     32  C   UNL     1      29.007  -2.235  53.178  0.00  0.00    +0.000 A 
ATOM     33  C   UNL     1      27.651  -2.327  52.905  0.00  0.00    +0.000 A 
ATOM     34  N   UNL     1      26.765  -1.290  53.007  0.00  0.00    +0.000 NA
ENDBRANCH  27  29
ENDBRANCH  22  25
ENDBRANCH  18  19
ENDBRANCH   4  18
BRANCH  10  35
ATOM     35  O   UNL     1      17.679   1.339  50.444  0.00  0.00    +0.000 OA
BRANCH  35  36
ATOM     36  C   UNL     1      16.929   0.500  51.327  0.00  0.00    +0.000 C 
BRANCH  36  37
ATOM     37  C   UNL     1      15.521   1.050  51.538  0.00  0.00    +0.000 C 
BRANCH  37  38
ATOM     38  C   UNL     1      15.130   2.232  50.629  0.00  0.00    +0.000 C 
BRANCH  38  39
ATOM     39  N   UNL     1      14.789   3.531  51.261  0.00  0.00    +0.000 N 
ATOM     40  C   UNL     1      13.368   3.869  51.061  0.00  0.00    +0.000 C 
ATOM     41  C   UNL     1      12.588   4.640  52.154  0.00  0.00    +0.000 C 
ATOM     42  N   UNL     1      13.052   4.405  53.496  0.00  0.00    +0.000 N 
ATOM     43  C   UNL     1      12.121   4.227  54.572  0.00  0.00    +0.000 C 
ATOM     44  C   UNL     1      14.477   4.398  53.705  0.00  0.00    +0.000 C 
ATOM     45  C   UNL     1      15.221   3.509  52.681  0.00  0.00    +0.000 C 
ATOM     46  H   UNL     1      15.297   4.288  50.806  0.00  0.00    +0.000 HD
ATOM     47  H   UNL     1      12.728   3.739  54.197  0.00  0.00    +0.000 HD
ENDBRANCH  38  39
ENDBRANCH  37  38
ENDBRANCH  36  37
ENDBRANCH  35  36
ENDBRANCH  10  35
TORSDOF 11
ENDMDL
MODEL 3
REMARK VINA RESULT:    -8.568      3.491      7.523
REMARK INTER + INTRA:         -16.415
REMARK INTER:                 -14.338
REMARK INTRA:                  -2.077
REMARK UNBOUND:                -2.338
REMARK  Name = 
REMARK  13 active torsions:
REMARK  status: ('A' for Active; 'I' for Inactive)
REMARK    1  A    between atoms: C_1  and  C_2
REMARK    2  A    between atoms: C_3  and  C_4
REMARK    3  A    between atoms: N_6  and  C_7
REMARK    4  A    between atoms: C_10  and  O_11
REMARK    5  A    between atoms: O_11  and  C_12
REMARK    6  A    between atoms: C_15  and  C_16
REMARK    7  A    between atoms: N_18  and  C_19
REMARK    8  A    between atoms: C_32  and  O_33
REMARK    9  A    between atoms: O_33  and  C_34
REMARK   10  A    between atoms: C_34  and  C_35
REMARK   11  A    between atoms: C_35  and  C_36
REMARK   12  A    between atoms: C_36  and  N_37
REMARK   13  A    between atoms: N_40  and  C_41
REMARK                            x       y       z     vdW  Elec       q    Type
REMARK                         _______ _______ _______ _____ _____    ______ ____
ROOT
ATOM      1  C   UNL     1      22.852   4.630  48.710  0.00  0.00    +0.000 A 
ATOM      2  C   UNL     1      22.149   4.033  49.806  0.00  0.00    +0.000 A 
ATOM      3  C   UNL     1      20.810   3.535  49.677  0.00  0.00    +0.000 A 
ATOM      4  C   UNL     1      19.999   2.975  50.723  0.00  0.00    +0.000 A 
ATOM      5  C   UNL     1      18.786   2.369  50.392  0.00  0.00    +0.000 A 
ATOM      6  C   UNL     1      18.340   2.468  49.092  0.00  0.00    +0.000 A 
ATOM      7  N   UNL     1      19.020   3.097  48.119  0.00  0.00    +0.000 NA
ATOM      8  C   UNL     1      20.230   3.601  48.404  0.00  0.00    +0.000 A 
ATOM      9  C   UNL     1      20.918   4.210  47.360  0.00  0.00    +0.000 A 
ATOM     10  C   UNL     1      22.220   4.742  47.464  0.00  0.00    +0.000 A 
ENDROOT
BRANCH   1  13
ATOM     11  C   UNL     1      25.131   4.192  49.324  0.00  0.00    +0.000 C 
ATOM     12  O   UNL     1      24.904   3.074  49.775  0.00  0.00    +0.000 OA
ATOM     13  N   UNL     1      24.149   5.132  49.005  0.00  0.00    +0.000 N 
ATOM     14  H   UNL     1      24.346   6.096  48.985  0.00  0.00    +0.000 HD
BRANCH  11  17
ATOM     15  C   UNL     1      28.711   5.778  48.226  0.00  0.00    +0.000 C 
ATOM     16  C   UNL     1      27.569   4.983  48.694  0.00  0.00    +0.000 C 
ATOM     17  C   UNL     1      26.510   4.504  49.007  0.00  0.00    +0.000 C 
ENDBRANCH  11  17
ENDBRANCH   1  13
BRANCH   4  18
ATOM     18  O   UNL     1      20.436   3.015  52.048  0.00  0.00    +0.000 OA
BRANCH  18  19
ATOM     19  C   UNL     1      21.427   2.128  52.456  0.00  0.00    +0.000 A 
ATOM     20  C   UNL     1      22.706   2.633  52.661  0.00  0.00    +0.000 A 
ATOM     21  C   UNL     1      23.751   1.766  53.019  0.00  0.00    +0.000 A 
ATOM     22  C   UNL     1      23.575   0.369  53.170  0.00  0.00    +0.000 A 
ATOM     23  C   UNL     1      22.272  -0.121  53.046  0.00  0.00    +0.000 A 
ATOM     24  C   UNL     1      21.205   0.764  52.715  0.00  0.00    +0.000 A 
BRANCH  22  25
ATOM     25  C   UNL     1      24.832  -0.425  53.448  0.00  0.00    +0.000 C 
ATOM     26  O   UNL     1      24.759  -1.159  54.440  0.00  0.00    +0.000 OA
ATOM     27  N   UNL     1      26.002  -0.270  52.704  0.00  0.00    +0.000 N 
ATOM     28  H   UNL     1      25.963   0.226  51.856  0.00  0.00    +0.000 HD
BRANCH  27  29
ATOM     29  C   UNL     1      27.256  -0.809  53.131  0.00  0.00    +0.000 A 
ATOM     30  C   UNL     1      28.279  -0.010  53.641  0.00  0.00    +0.000 A 
ATOM     31  C   UNL     1      29.578  -0.506  53.750  0.00  0.00    +0.000 A 
ATOM     32  C   UNL     1      29.818  -1.831  53.442  0.00  0.00    +0.000 A 
ATOM     33  C   UNL     1      28.725  -2.608  53.092  0.00  0.00    +0.000 A 
ATOM     34  N   UNL     1      27.454  -2.133  52.927  0.00  0.00    +0.000 NA
ENDBRANCH  27  29
ENDBRANCH  22  25
ENDBRANCH  18  19
ENDBRANCH   4  18
BRANCH  10  35
ATOM     35  O   UNL     1      22.603   5.275  46.281  0.00  0.00    +0.000 OA
BRANCH  35  36
ATOM     36  C   UNL     1      21.788   5.567  45.142  0.00  0.00    +0.000 C 
BRANCH  36  37
ATOM     37  C   UNL     1      21.542   7.067  45.017  0.00  0.00    +0.000 C 
BRANCH  37  38
ATOM     38  C   UNL     1      22.677   7.969  45.543  0.00  0.00    +0.000 C 
BRANCH  38  39
ATOM     39  N   UNL     1      22.427   8.791  46.753  0.00  0.00    +0.000 N 
ATOM     40  C   UNL     1      21.031   8.665  47.210  0.00  0.00    +0.000 C 
ATOM     41  C   UNL     1      20.697   8.721  48.722  0.00  0.00    +0.000 C 
ATOM     42  N   UNL     1      21.744   8.239  49.582  0.00  0.00    +0.000 N 
ATOM     43  C   UNL     1      21.439   7.412  50.714  0.00  0.00    +0.000 C 
ATOM     44  C   UNL     1      23.089   8.655  49.276  0.00  0.00    +0.000 C 
ATOM     45  C   UNL     1      23.444   8.459  47.784  0.00  0.00    +0.000 C 
ATOM     46  H   UNL     1      22.535   9.781  46.535  0.00  0.00    +0.000 HD
ATOM     47  H   UNL     1      21.891   7.313  49.984  0.00  0.00    +0.000 HD
ENDBRANCH  38  39
ENDBRANCH  37  38
ENDBRANCH  36  37
ENDBRANCH  35  36
ENDBRANCH  10  35
TORSDOF 11
ENDMDL
MODEL 4
REMARK VINA RESULT:    -8.462      3.934      8.637
REMARK INTER + INTRA:         -16.242
REMARK INTER:                 -14.504
REMARK INTRA:                  -1.738
REMARK UNBOUND:                -2.338
REMARK  Name = 
REMARK  13 active torsions:
REMARK  status: ('A' for Active; 'I' for Inactive)
REMARK    1  A    between atoms: C_1  and  C_2
REMARK    2  A    between atoms: C_3  and  C_4
REMARK    3  A    between atoms: N_6  and  C_7
REMARK    4  A    between atoms: C_10  and  O_11
REMARK    5  A    between atoms: O_11  and  C_12
REMARK    6  A    between atoms: C_15  and  C_16
REMARK    7  A    between atoms: N_18  and  C_19
REMARK    8  A    between atoms: C_32  and  O_33
REMARK    9  A    between atoms: O_33  and  C_34
REMARK   10  A    between atoms: C_34  and  C_35
REMARK   11  A    between atoms: C_35  and  C_36
REMARK   12  A    between atoms: C_36  and  N_37
REMARK   13  A    between atoms: N_40  and  C_41
REMARK                            x       y       z     vdW  Elec       q    Type
REMARK                         _______ _______ _______ _____ _____    ______ ____
ROOT
ATOM      1  C   UNL     1      22.658   4.687  49.039  0.00  0.00    +0.000 A 
ATOM      2  C   UNL     1      22.000   3.961  50.084  0.00  0.00    +0.000 A 
ATOM      3  C   UNL     1      20.719   3.341  49.898  0.00  0.00    +0.000 A 
ATOM      4  C   UNL     1      19.951   2.645  50.893  0.00  0.00    +0.000 A 
ATOM      5  C   UNL     1      18.810   1.942  50.502  0.00  0.00    +0.000 A 
ATOM      6  C   UNL     1      18.378   2.072  49.200  0.00  0.00    +0.000 A 
ATOM      7  N   UNL     1      19.008   2.820  48.279  0.00  0.00    +0.000 NA
ATOM      8  C   UNL     1      20.157   3.423  48.618  0.00  0.00    +0.000 A 
ATOM      9  C   UNL     1      20.797   4.158  47.626  0.00  0.00    +0.000 A 
ATOM     10  C   UNL     1      22.038   4.808  47.788  0.00  0.00    +0.000 A 
ENDROOT
BRANCH   1  13
ATOM     11  C   UNL     1      25.038   4.504  49.288  0.00  0.00    +0.000 C 
ATOM     12  O   UNL     1      25.044   3.278  49.341  0.00  0.00    +0.000 OA
ATOM     13  N   UNL     1      23.893   5.297  49.390  0.00  0.00    +0.000 N 
ATOM     14  H   UNL     1      23.940   6.232  49.691  0.00  0.00    +0.000 HD
BRANCH  11  17
ATOM     15  C   UNL     1      28.813   5.599  48.247  0.00  0.00    +0.000 C 
ATOM     16  C   UNL     1      27.414   5.474  48.674  0.00  0.00    +0.000 C 
ATOM     17  C   UNL     1      26.300   5.153  48.996  0.00  0.00    +0.000 C 
ENDBRANCH  11  17
ENDBRANCH   1  13
BRANCH   4  18
ATOM     18  O   UNL     1      20.361   2.650  52.227  0.00  0.00    +0.000 OA
BRANCH  18  19
ATOM     19  C   UNL     1      21.405   1.815  52.614  0.00  0.00    +0.000 A 
ATOM     20  C   UNL     1      22.670   2.375  52.740  0.00  0.00    +0.000 A 
ATOM     21  C   UNL     1      23.766   1.560  53.074  0.00  0.00    +0.000 A 
ATOM     22  C   UNL     1      23.652   0.163  53.277  0.00  0.00    +0.000 A 
ATOM     23  C   UNL     1      22.365  -0.379  53.232  0.00  0.00    +0.000 A 
ATOM     24  C   UNL     1      21.249   0.453  52.926  0.00  0.00    +0.000 A 
BRANCH  22  25
ATOM     25  C   UNL     1      24.951  -0.572  53.518  0.00  0.00    +0.000 C 
ATOM     26  O   UNL     1      24.911  -1.378  54.454  0.00  0.00    +0.000 OA
ATOM     27  N   UNL     1      26.118  -0.296  52.805  0.00  0.00    +0.000 N 
ATOM     28  H   UNL     1      26.059   0.256  51.993  0.00  0.00    +0.000 HD
BRANCH  27  29
ATOM     29  C   UNL     1      27.397  -0.788  53.212  0.00  0.00    +0.000 A 
ATOM     30  C   UNL     1      28.384   0.041  53.743  0.00  0.00    +0.000 A 
ATOM     31  C   UNL     1      29.705  -0.397  53.833  0.00  0.00    +0.000 A 
ATOM     32  C   UNL     1      30.005  -1.700  53.485  0.00  0.00    +0.000 A 
ATOM     33  C   UNL     1      28.947  -2.516  53.116  0.00  0.00    +0.000 A 
ATOM     34  N   UNL     1      27.655  -2.096  52.968  0.00  0.00    +0.000 NA
ENDBRANCH  27  29
ENDBRANCH  22  25
ENDBRANCH  18  19
ENDBRANCH   4  18
BRANCH  10  35
ATOM     35  O   UNL     1      22.385   5.445  46.646  0.00  0.00    +0.000 OA
BRANCH  35  36
ATOM     36  C   UNL     1      22.151   6.812  46.294  0.00  0.00    +0.000 C 
BRANCH  36  37
ATOM     37  C   UNL     1      23.202   7.724  46.919  0.00  0.00    +0.000 C 
BRANCH  37  38
ATOM     38  C   UNL     1      24.457   7.972  46.059  0.00  0.00    +0.000 C 
BRANCH  38  39
ATOM     39  N   UNL     1      25.387   9.059  46.455  0.00  0.00    +0.000 N 
ATOM     40  C   UNL     1      24.920   9.749  47.672  0.00  0.00    +0.000 C 
ATOM     41  C   UNL     1      25.942  10.303  48.696  0.00  0.00    +0.000 C 
ATOM     42  N   UNL     1      27.181   9.574  48.756  0.00  0.00    +0.000 N 
ATOM     43  C   UNL     1      27.801   9.289  50.017  0.00  0.00    +0.000 C 
ATOM     44  C   UNL     1      27.776   9.188  47.503  0.00  0.00    +0.000 C 
ATOM     45  C   UNL     1      26.764   8.510  46.550  0.00  0.00    +0.000 C 
ATOM     46  H   UNL     1      25.403   9.785  45.741  0.00  0.00    +0.000 HD
ATOM     47  H   UNL     1      27.468   8.817  49.375  0.00  0.00    +0.000 HD
ENDBRANCH  38  39
ENDBRANCH  37  38
ENDBRANCH  36  37
ENDBRANCH  35  36
ENDBRANCH  10  35
TORSDOF 11
ENDMDL
MODEL 5
REMARK VINA RESULT:    -8.363      3.506      6.688
REMARK INTER + INTRA:         -16.078
REMARK INTER:                 -14.134
REMARK INTRA:                  -1.944
REMARK UNBOUND:                -2.338
REMARK  Name = 
REMARK  13 active torsions:
REMARK  status: ('A' for Active; 'I' for Inactive)
REMARK    1  A    between atoms: C_1  and  C_2
REMARK    2  A    between atoms: C_3  and  C_4
REMARK    3  A    between atoms: N_6  and  C_7
REMARK    4  A    between atoms: C_10  and  O_11
REMARK    5  A    between atoms: O_11  and  C_12
REMARK    6  A    between atoms: C_15  and  C_16
REMARK    7  A    between atoms: N_18  and  C_19
REMARK    8  A    between atoms: C_32  and  O_33
REMARK    9  A    between atoms: O_33  and  C_34
REMARK   10  A    between atoms: C_34  and  C_35
REMARK   11  A    between atoms: C_35  and  C_36
REMARK   12  A    between atoms: C_36  and  N_37
REMARK   13  A    between atoms: N_40  and  C_41
REMARK                            x       y       z     vdW  Elec       q    Type
REMARK                         _______ _______ _______ _____ _____    ______ ____
ROOT
ATOM      1  C   UNL     1      20.099   0.923  50.117  0.00  0.00    +0.000 A 
ATOM      2  C   UNL     1      21.350   0.720  50.783  0.00  0.00    +0.000 A 
ATOM      3  C   UNL     1      21.432   0.228  52.129  0.00  0.00    +0.000 A 
ATOM      4  C   UNL     1      22.628   0.046  52.904  0.00  0.00    +0.000 A 
ATOM      5  C   UNL     1      22.548  -0.613  54.132  0.00  0.00    +0.000 A 
ATOM      6  C   UNL     1      21.300  -0.927  54.624  0.00  0.00    +0.000 A 
ATOM      7  N   UNL     1      20.155  -0.654  53.976  0.00  0.00    +0.000 NA
ATOM      8  C   UNL     1      20.224  -0.106  52.754  0.00  0.00    +0.000 A 
ATOM      9  C   UNL     1      19.018   0.127  52.101  0.00  0.00    +0.000 A 
ATOM     10  C   UNL     1      18.905   0.642  50.793  0.00  0.00    +0.000 A 
ENDROOT
BRANCH   1  13
ATOM     11  C   UNL     1      20.587   2.802  48.705  0.00  0.00    +0.000 C 
ATOM     12  O   UNL     1      20.480   3.635  49.599  0.00  0.00    +0.000 OA
ATOM     13  N   UNL     1      20.175   1.471  48.808  0.00  0.00    +0.000 N 
ATOM     14  H   UNL     1      19.949   0.939  48.012  0.00  0.00    +0.000 HD
BRANCH  11  17
ATOM     15  C   UNL     1      21.909   4.423  45.218  0.00  0.00    +0.000 C 
ATOM     16  C   UNL     1      21.677   3.707  46.479  0.00  0.00    +0.000 C 
ATOM     17  C   UNL     1      21.285   3.215  47.504  0.00  0.00    +0.000 C 
ENDBRANCH  11  17
ENDBRANCH   1  13
BRANCH   4  18
ATOM     18  O   UNL     1      23.855   0.499  52.419  0.00  0.00    +0.000 OA
BRANCH  18  19
ATOM     19  C   UNL     1      23.972   1.826  52.016  0.00  0.00    +0.000 A 
ATOM     20  C   UNL     1      24.490   2.077  50.751  0.00  0.00    +0.000 A 
ATOM     21  C   UNL     1      24.679   3.402  50.323  0.00  0.00    +0.000 A 
ATOM     22  C   UNL     1      24.380   4.523  51.135  0.00  0.00    +0.000 A 
ATOM     23  C   UNL     1      23.782   4.266  52.371  0.00  0.00    +0.000 A 
ATOM     24  C   UNL     1      23.559   2.923  52.792  0.00  0.00    +0.000 A 
BRANCH  22  25
ATOM     25  C   UNL     1      24.751   5.870  50.556  0.00  0.00    +0.000 C 
ATOM     26  O   UNL     1      23.785   6.601  50.312  0.00  0.00    +0.000 OA
ATOM     27  N   UNL     1      26.064   6.218  50.238  0.00  0.00    +0.000 N 
ATOM     28  H   UNL     1      26.799   5.655  50.571  0.00  0.00    +0.000 HD
BRANCH  27  29
ATOM     29  C   UNL     1      26.380   7.367  49.447  0.00  0.00    +0.000 A 
ATOM     30  C   UNL     1      26.409   7.331  48.054  0.00  0.00    +0.000 A 
ATOM     31  C   UNL     1      27.017   8.357  47.331  0.00  0.00    +0.000 A 
ATOM     32  C   UNL     1      27.500   9.459  48.008  0.00  0.00    +0.000 A 
ATOM     33  C   UNL     1      27.297   9.500  49.378  0.00  0.00    +0.000 A 
ATOM     34  N   UNL     1      26.753   8.485  50.115  0.00  0.00    +0.000 NA
ENDBRANCH  27  29
ENDBRANCH  22  25
ENDBRANCH  18  19
ENDBRANCH   4  18
BRANCH  10  35
ATOM     35  O   UNL     1      17.601   0.763  50.451  0.00  0.00    +0.000 OA
BRANCH  35  36
ATOM     36  C   UNL     1      16.776  -0.192  49.777  0.00  0.00    +0.000 C 
BRANCH  36  37
ATOM     37  C   UNL     1      15.491  -0.452  50.559  0.00  0.00    +0.000 C 
BRANCH  37  38
ATOM     38  C   UNL     1      15.269   0.458  51.784  0.00  0.00    +0.000 C 
BRANCH  38  39
ATOM     39  N   UNL     1      14.869   1.869  51.558  0.00  0.00    +0.000 N 
ATOM     40  C   UNL     1      13.409   1.992  51.383  0.00  0.00    +0.000 C 
ATOM     41  C   UNL     1      12.666   3.251  51.894  0.00  0.00    +0.000 C 
ATOM     42  N   UNL     1      13.272   3.878  53.039  0.00  0.00    +0.000 N 
ATOM     43  C   UNL     1      12.465   4.364  54.119  0.00  0.00    +0.000 C 
ATOM     44  C   UNL     1      14.705   4.025  53.024  0.00  0.00    +0.000 C 
ATOM     45  C   UNL     1      15.431   2.713  52.644  0.00  0.00    +0.000 C 
ATOM     46  H   UNL     1      15.260   2.210  50.682  0.00  0.00    +0.000 HD
ATOM     47  H   UNL     1      13.077   3.761  54.033  0.00  0.00    +0.000 HD
ENDBRANCH  38  39
ENDBRANCH  37  38
ENDBRANCH  36  37
ENDBRANCH  35  36
ENDBRANCH  10  35
TORSDOF 11
ENDMDL
MODEL 6
REMARK VINA RESULT:    -8.315      3.216      6.100
REMARK INTER + INTRA:         -16.000
REMARK INTER:                 -14.261
REMARK INTRA:                  -1.739
REMARK UNBOUND:                -2.338
REMARK  Name = 
REMARK  13 active torsions:
REMARK  status: ('A' for Active; 'I' for Inactive)
REMARK    1  A    between atoms: C_1  and  C_2
REMARK    2  A    between atoms: C_3  and  C_4
REMARK    3  A    between atoms: N_6  and  C_7
REMARK    4  A    between atoms: C_10  and  O_11
REMARK    5  A    between atoms: O_11  and  C_12
REMARK    6  A    between atoms: C_15  and  C_16
REMARK    7  A    between atoms: N_18  and  C_19
REMARK    8  A    between atoms: C_32  and  O_33
REMARK    9  A    between atoms: O_33  and  C_34
REMARK   10  A    between atoms: C_34  and  C_35
REMARK   11  A    between atoms: C_35  and  C_36
REMARK   12  A    between atoms: C_36  and  N_37
REMARK   13  A    between atoms: N_40  and  C_41
REMARK                            x       y       z     vdW  Elec       q    Type
REMARK                         _______ _______ _______ _____ _____    ______ ____
ROOT
ATOM      1  C   UNL     1      20.270   0.797  50.336  0.00  0.00    +0.000 A 
ATOM      2  C   UNL     1      21.573   0.668  50.916  0.00  0.00    +0.000 A 
ATOM      3  C   UNL     1      21.771   0.209  52.262  0.00  0.00    +0.000 A 
ATOM      4  C   UNL     1      23.026   0.101  52.954  0.00  0.00    +0.000 A 
ATOM      5  C   UNL     1      23.064  -0.536  54.196  0.00  0.00    +0.000 A 
ATOM      6  C   UNL     1      21.870  -0.900  54.779  0.00  0.00    +0.000 A 
ATOM      7  N   UNL     1      20.671  -0.696  54.209  0.00  0.00    +0.000 NA
ATOM      8  C   UNL     1      20.628  -0.171  52.976  0.00  0.00    +0.000 A 
ATOM      9  C   UNL     1      19.370  -0.010  52.405  0.00  0.00    +0.000 A 
ATOM     10  C   UNL     1      19.140   0.471  51.099  0.00  0.00    +0.000 A 
ENDROOT
BRANCH   1  13
ATOM     11  C   UNL     1      20.718   2.616  48.837  0.00  0.00    +0.000 C 
ATOM     12  O   UNL     1      20.779   3.466  49.719  0.00  0.00    +0.000 OA
ATOM     13  N   UNL     1      20.228   1.320  49.016  0.00  0.00    +0.000 N 
ATOM     14  H   UNL     1      19.871   0.796  48.264  0.00  0.00    +0.000 HD
BRANCH  11  17
ATOM     15  C   UNL     1      21.884   4.233  45.293  0.00  0.00    +0.000 C 
ATOM     16  C   UNL     1      21.647   3.450  46.511  0.00  0.00    +0.000 C 
ATOM     17  C   UNL     1      21.295   2.961  47.553  0.00  0.00    +0.000 C 
ENDBRANCH  11  17
ENDBRANCH   1  13
BRANCH   4  18
ATOM     18  O   UNL     1      24.192   0.603  52.376  0.00  0.00    +0.000 OA
BRANCH  18  19
ATOM     19  C   UNL     1      24.227   1.936  51.977  0.00  0.00    +0.000 A 
ATOM     20  C   UNL     1      24.667   2.216  50.689  0.00  0.00    +0.000 A 
ATOM     21  C   UNL     1      24.772   3.550  50.260  0.00  0.00    +0.000 A 
ATOM     22  C   UNL     1      24.464   4.652  51.094  0.00  0.00    +0.000 A 
ATOM     23  C   UNL     1      23.942   4.363  52.357  0.00  0.00    +0.000 A 
ATOM     24  C   UNL     1      23.804   3.009  52.780  0.00  0.00    +0.000 A 
BRANCH  22  25
ATOM     25  C   UNL     1      24.742   6.017  50.505  0.00  0.00    +0.000 C 
ATOM     26  O   UNL     1      23.730   6.631  50.147  0.00  0.00    +0.000 OA
ATOM     27  N   UNL     1      26.034   6.501  50.299  0.00  0.00    +0.000 N 
ATOM     28  H   UNL     1      26.790   6.030  50.719  0.00  0.00    +0.000 HD
BRANCH  27  29
ATOM     29  C   UNL     1      26.299   7.658  49.502  0.00  0.00    +0.000 A 
ATOM     30  C   UNL     1      26.246   7.635  48.109  0.00  0.00    +0.000 A 
ATOM     31  C   UNL     1      26.808   8.669  47.361  0.00  0.00    +0.000 A 
ATOM     32  C   UNL     1      27.326   9.767  48.019  0.00  0.00    +0.000 A 
ATOM     33  C   UNL     1      27.203   9.795  49.399  0.00  0.00    +0.000 A 
ATOM     34  N   UNL     1      26.707   8.771  50.157  0.00  0.00    +0.000 NA
ENDBRANCH  27  29
ENDBRANCH  22  25
ENDBRANCH  18  19
ENDBRANCH   4  18
BRANCH  10  35
ATOM     35  O   UNL     1      17.812   0.522  50.847  0.00  0.00    +0.000 OA
BRANCH  35  36
ATOM     36  C   UNL     1      16.882   1.540  51.228  0.00  0.00    +0.000 C 
BRANCH  36  37
ATOM     37  C   UNL     1      15.568   0.929  51.705  0.00  0.00    +0.000 C 
BRANCH  37  38
ATOM     38  C   UNL     1      15.701  -0.165  52.784  0.00  0.00    +0.000 C 
BRANCH  38  39
ATOM     39  N   UNL     1      16.092  -1.533  52.364  0.00  0.00    +0.000 N 
ATOM     40  C   UNL     1      17.136  -2.089  53.245  0.00  0.00    +0.000 C 
ATOM     41  C   UNL     1      17.167  -3.606  53.556  0.00  0.00    +0.000 C 
ATOM     42  N   UNL     1      15.879  -4.246  53.534  0.00  0.00    +0.000 N 
ATOM     43  C   UNL     1      15.526  -5.213  54.532  0.00  0.00    +0.000 C 
ATOM     44  C   UNL     1      14.994  -3.902  52.451  0.00  0.00    +0.000 C 
ATOM     45  C   UNL     1      14.872  -2.373  52.250  0.00  0.00    +0.000 C 
ATOM     46  H   UNL     1      16.524  -1.508  51.442  0.00  0.00    +0.000 HD
ATOM     47  H   UNL     1      15.227  -4.439  54.293  0.00  0.00    +0.000 HD
ENDBRANCH  38  39
ENDBRANCH  37  38
ENDBRANCH  36  37
ENDBRANCH  35  36
ENDBRANCH  10  35
TORSDOF 11
ENDMDL
MODEL 7
REMARK VINA RESULT:    -8.298      2.949      7.117
REMARK INTER + INTRA:         -15.971
REMARK INTER:                 -12.994
REMARK INTRA:                  -2.977
REMARK UNBOUND:                -2.338
REMARK  Name = 
REMARK  13 active torsions:
REMARK  status: ('A' for Active; 'I' for Inactive)
REMARK    1  A    between atoms: C_1  and  C_2
REMARK    2  A    between atoms: C_3  and  C_4
REMARK    3  A    between atoms: N_6  and  C_7
REMARK    4  A    between atoms: C_10  and  O_11
REMARK    5  A    between atoms: O_11  and  C_12
REMARK    6  A    between atoms: C_15  and  C_16
REMARK    7  A    between atoms: N_18  and  C_19
REMARK    8  A    between atoms: C_32  and  O_33
REMARK    9  A    between atoms: O_33  and  C_34
REMARK   10  A    between atoms: C_34  and  C_35
REMARK   11  A    between atoms: C_35  and  C_36
REMARK   12  A    between atoms: C_36  and  N_37
REMARK   13  A    between atoms: N_40  and  C_41
REMARK                            x       y       z     vdW  Elec       q    Type
REMARK                         _______ _______ _______ _____ _____    ______ ____
ROOT
ATOM      1  C   UNL     1      19.855   4.286  48.574  0.00  0.00    +0.000 A 
ATOM      2  C   UNL     1      19.610   2.989  49.130  0.00  0.00    +0.000 A 
ATOM      3  C   UNL     1      18.594   2.757  50.117  0.00  0.00    +0.000 A 
ATOM      4  C   UNL     1      18.308   1.513  50.778  0.00  0.00    +0.000 A 
ATOM      5  C   UNL     1      17.169   1.414  51.577  0.00  0.00    +0.000 A 
ATOM      6  C   UNL     1      16.445   2.560  51.826  0.00  0.00    +0.000 A 
ATOM      7  N   UNL     1      16.763   3.764  51.323  0.00  0.00    +0.000 NA
ATOM      8  C   UNL     1      17.800   3.853  50.478  0.00  0.00    +0.000 A 
ATOM      9  C   UNL     1      18.074   5.110  49.949  0.00  0.00    +0.000 A 
ATOM     10  C   UNL     1      19.088   5.376  49.004  0.00  0.00    +0.000 A 
ENDROOT
BRANCH   1  13
ATOM     11  C   UNL     1      20.598   4.526  46.305  0.00  0.00    +0.000 C 
ATOM     12  O   UNL     1      19.531   4.181  45.808  0.00  0.00    +0.000 OA
ATOM     13  N   UNL     1      20.933   4.371  47.652  0.00  0.00    +0.000 N 
ATOM     14  H   UNL     1      21.870   4.324  47.947  0.00  0.00    +0.000 HD
BRANCH  11  17
ATOM     15  C   UNL     1      23.053   7.131  44.374  0.00  0.00    +0.000 C 
ATOM     16  C   UNL     1      22.258   6.007  44.884  0.00  0.00    +0.000 C 
ATOM     17  C   UNL     1      21.523   5.236  45.444  0.00  0.00    +0.000 C 
ENDBRANCH  11  17
ENDBRANCH   1  13
BRANCH   4  18
ATOM     18  O   UNL     1      19.147   0.413  50.596  0.00  0.00    +0.000 OA
BRANCH  18  19
ATOM     19  C   UNL     1      20.302   0.312  51.366  0.00  0.00    +0.000 A 
ATOM     20  C   UNL     1      21.505   0.692  50.783  0.00  0.00    +0.000 A 
ATOM     21  C   UNL     1      22.704   0.554  51.502  0.00  0.00    +0.000 A 
ATOM     22  C   UNL     1      22.759   0.021  52.813  0.00  0.00    +0.000 A 
ATOM     23  C   UNL     1      21.539  -0.280  53.424  0.00  0.00    +0.000 A 
ATOM     24  C   UNL     1      20.320  -0.109  52.707  0.00  0.00    +0.000 A 
BRANCH  22  25
ATOM     25  C   UNL     1      24.145  -0.158  53.391  0.00  0.00    +0.000 C 
ATOM     26  O   UNL     1      24.159  -0.500  54.579  0.00  0.00    +0.000 OA
ATOM     27  N   UNL     1      25.305   0.128  52.671  0.00  0.00    +0.000 N 
ATOM     28  H   UNL     1      25.239   0.270  51.699  0.00  0.00    +0.000 HD
BRANCH  27  29
ATOM     29  C   UNL     1      26.589   0.222  53.295  0.00  0.00    +0.000 A 
ATOM     30  C   UNL     1      27.163   1.443  53.647  0.00  0.00    +0.000 A 
ATOM     31  C   UNL     1      28.520   1.525  53.955  0.00  0.00    +0.000 A 
ATOM     32  C   UNL     1      29.267   0.364  54.008  0.00  0.00    +0.000 A 
ATOM     33  C   UNL     1      28.596  -0.831  53.802  0.00  0.00    +0.000 A 
ATOM     34  N   UNL     1      27.280  -0.933  53.445  0.00  0.00    +0.000 NA
ENDBRANCH  27  29
ENDBRANCH  22  25
ENDBRANCH  18  19
ENDBRANCH   4  18
BRANCH  10  35
ATOM     35  O   UNL     1      19.107   6.694  48.699  0.00  0.00    +0.000 OA
BRANCH  35  36
ATOM     36  C   UNL     1      19.714   7.760  49.437  0.00  0.00    +0.000 C 
BRANCH  36  37
ATOM     37  C   UNL     1      21.235   7.696  49.336  0.00  0.00    +0.000 C 
BRANCH  37  38
ATOM     38  C   UNL     1      21.996   7.951  50.652  0.00  0.00    +0.000 C 
BRANCH  38  39
ATOM     39  N   UNL     1      22.779   6.839  51.246  0.00  0.00    +0.000 N 
ATOM     40  C   UNL     1      21.988   5.596  51.305  0.00  0.00    +0.000 C 
ATOM     41  C   UNL     1      22.679   4.222  51.120  0.00  0.00    +0.000 C 
ATOM     42  N   UNL     1      23.846   4.251  50.279  0.00  0.00    +0.000 N 
ATOM     43  C   UNL     1      24.081   3.213  49.318  0.00  0.00    +0.000 C 
ATOM     44  C   UNL     1      24.772   5.336  50.479  0.00  0.00    +0.000 C 
ATOM     45  C   UNL     1      24.069   6.713  50.522  0.00  0.00    +0.000 C 
ATOM     46  H   UNL     1      23.001   7.046  52.219  0.00  0.00    +0.000 HD
ATOM     47  H   UNL     1      23.943   4.065  49.281  0.00  0.00    +0.000 HD
ENDBRANCH  38  39
ENDBRANCH  37  38
ENDBRANCH  36  37
ENDBRANCH  35  36
ENDBRANCH  10  35
TORSDOF 11
ENDMDL
MODEL 8
REMARK VINA RESULT:    -8.265      2.871      7.314
REMARK INTER + INTRA:         -15.917
REMARK INTER:                 -13.529
REMARK INTRA:                  -2.388
REMARK UNBOUND:                -2.338
REMARK  Name = 
REMARK  13 active torsions:
REMARK  status: ('A' for Active; 'I' for Inactive)
REMARK    1  A    between atoms: C_1  and  C_2
REMARK    2  A    between atoms: C_3  and  C_4
REMARK    3  A    between atoms: N_6  and  C_7
REMARK    4  A    between atoms: C_10  and  O_11
REMARK    5  A    between atoms: O_11  and  C_12
REMARK    6  A    between atoms: C_15  and  C_16
REMARK    7  A    between atoms: N_18  and  C_19
REMARK    8  A    between atoms: C_32  and  O_33
REMARK    9  A    between atoms: O_33  and  C_34
REMARK   10  A    between atoms: C_34  and  C_35
REMARK   11  A    between atoms: C_35  and  C_36
REMARK   12  A    between atoms: C_36  and  N_37
REMARK   13  A    between atoms: N_40  and  C_41
REMARK                            x       y       z     vdW  Elec       q    Type
REMARK                         _______ _______ _______ _____ _____    ______ ____
ROOT
ATOM      1  C   UNL     1      20.749   4.154  50.057  0.00  0.00    +0.000 A 
ATOM      2  C   UNL     1      20.192   2.850  50.258  0.00  0.00    +0.000 A 
ATOM      3  C   UNL     1      18.820   2.651  50.628  0.00  0.00    +0.000 A 
ATOM      4  C   UNL     1      18.182   1.394  50.910  0.00  0.00    +0.000 A 
ATOM      5  C   UNL     1      16.796   1.358  51.075  0.00  0.00    +0.000 A 
ATOM      6  C   UNL     1      16.112   2.554  51.116  0.00  0.00    +0.000 A 
ATOM      7  N   UNL     1      16.703   3.753  50.981  0.00  0.00    +0.000 NA
ATOM      8  C   UNL     1      18.019   3.795  50.727  0.00  0.00    +0.000 A 
ATOM      9  C   UNL     1      18.586   5.054  50.557  0.00  0.00    +0.000 A 
ATOM     10  C   UNL     1      19.938   5.284  50.229  0.00  0.00    +0.000 A 
ENDROOT
BRANCH   1  13
ATOM     11  C   UNL     1      23.019   4.197  50.836  0.00  0.00    +0.000 C 
ATOM     12  O   UNL     1      22.735   4.582  51.965  0.00  0.00    +0.000 OA
ATOM     13  N   UNL     1      22.137   4.195  49.753  0.00  0.00    +0.000 N 
ATOM     14  H   UNL     1      22.461   4.222  48.825  0.00  0.00    +0.000 HD
BRANCH  11  17
ATOM     15  C   UNL     1      26.709   2.966  49.650  0.00  0.00    +0.000 C 
ATOM     16  C   UNL     1      25.428   3.259  50.305  0.00  0.00    +0.000 C 
ATOM     17  C   UNL     1      24.331   3.609  50.654  0.00  0.00    +0.000 C 
ENDBRANCH  11  17
ENDBRANCH   1  13
BRANCH   4  18
ATOM     18  O   UNL     1      18.938   0.224  50.987  0.00  0.00    +0.000 OA
BRANCH  18  19
ATOM     19  C   UNL     1      20.152   0.251  51.666  0.00  0.00    +0.000 A 
ATOM     20  C   UNL     1      21.318   0.283  50.909  0.00  0.00    +0.000 A 
ATOM     21  C   UNL     1      22.568   0.254  51.549  0.00  0.00    +0.000 A 
ATOM     22  C   UNL     1      22.711   0.175  52.955  0.00  0.00    +0.000 A 
ATOM     23  C   UNL     1      21.539   0.229  53.714  0.00  0.00    +0.000 A 
ATOM     24  C   UNL     1      20.271   0.292  53.066  0.00  0.00    +0.000 A 
BRANCH  22  25
ATOM     25  C   UNL     1      24.129   0.040  53.464  0.00  0.00    +0.000 C 
ATOM     26  O   UNL     1      24.217  -0.436  54.601  0.00  0.00    +0.000 OA
ATOM     27  N   UNL     1      25.234   0.501  52.748  0.00  0.00    +0.000 N 
ATOM     28  H   UNL     1      25.118   0.750  51.803  0.00  0.00    +0.000 HD
BRANCH  27  29
ATOM     29  C   UNL     1      26.531   0.622  53.339  0.00  0.00    +0.000 A 
ATOM     30  C   UNL     1      27.176   1.850  53.484  0.00  0.00    +0.000 A 
ATOM     31  C   UNL     1      28.541   1.905  53.764  0.00  0.00    +0.000 A 
ATOM     32  C   UNL     1      29.225   0.729  53.998  0.00  0.00    +0.000 A 
ATOM     33  C   UNL     1      28.488  -0.445  53.994  0.00  0.00    +0.000 A 
ATOM     34  N   UNL     1      27.163  -0.530  53.668  0.00  0.00    +0.000 NA
ENDBRANCH  27  29
ENDBRANCH  22  25
ENDBRANCH  18  19
ENDBRANCH   4  18
BRANCH  10  35
ATOM     35  O   UNL     1      20.180   6.613  50.147  0.00  0.00    +0.000 OA
BRANCH  35  36
ATOM     36  C   UNL     1      19.710   7.533  49.157  0.00  0.00    +0.000 C 
BRANCH  36  37
ATOM     37  C   UNL     1      20.378   8.895  49.318  0.00  0.00    +0.000 C 
BRANCH  37  38
ATOM     38  C   UNL     1      21.894   8.925  49.042  0.00  0.00    +0.000 C 
BRANCH  38  39
ATOM     39  N   UNL     1      22.701   7.726  49.377  0.00  0.00    +0.000 N 
ATOM     40  C   UNL     1      23.282   7.112  48.168  0.00  0.00    +0.000 C 
ATOM     41  C   UNL     1      24.672   6.432  48.229  0.00  0.00    +0.000 C 
ATOM     42  N   UNL     1      25.565   6.989  49.210  0.00  0.00    +0.000 N 
ATOM     43  C   UNL     1      26.951   7.196  48.903  0.00  0.00    +0.000 C 
ATOM     44  C   UNL     1      25.014   7.283  50.508  0.00  0.00    +0.000 C 
ATOM     45  C   UNL     1      23.694   8.085  50.421  0.00  0.00    +0.000 C 
ATOM     46  H   UNL     1      22.105   6.999  49.770  0.00  0.00    +0.000 HD
ATOM     47  H   UNL     1      26.285   7.705  49.113  0.00  0.00    +0.000 HD
ENDBRANCH  38  39
ENDBRANCH  37  38
ENDBRANCH  36  37
ENDBRANCH  35  36
ENDBRANCH  10  35
TORSDOF 11
ENDMDL
MODEL 9
REMARK VINA RESULT:    -8.198      3.081      7.083
REMARK INTER + INTRA:         -15.807
REMARK INTER:                 -13.501
REMARK INTRA:                  -2.306
REMARK UNBOUND:                -2.338
REMARK  Name = 
REMARK  13 active torsions:
REMARK  status: ('A' for Active; 'I' for Inactive)
REMARK    1  A    between atoms: C_1  and  C_2
REMARK    2  A    between atoms: C_3  and  C_4
REMARK    3  A    between atoms: N_6  and  C_7
REMARK    4  A    between atoms: C_10  and  O_11
REMARK    5  A    between atoms: O_11  and  C_12
REMARK    6  A    between atoms: C_15  and  C_16
REMARK    7  A    between atoms: N_18  and  C_19
REMARK    8  A    between atoms: C_32  and  O_33
REMARK    9  A    between atoms: O_33  and  C_34
REMARK   10  A    between atoms: C_34  and  C_35
REMARK   11  A    between atoms: C_35  and  C_36
REMARK   12  A    between atoms: C_36  and  N_37
REMARK   13  A    between atoms: N_40  and  C_41
REMARK                            x       y       z     vdW  Elec       q    Type
REMARK                         _______ _______ _______ _____ _____    ______ ____
ROOT
ATOM      1  C   UNL     1      20.217   0.445  51.331  0.00  0.00    +0.000 A 
ATOM      2  C   UNL     1      21.611   0.352  51.646  0.00  0.00    +0.000 A 
ATOM      3  C   UNL     1      22.081  -0.161  52.902  0.00  0.00    +0.000 A 
ATOM      4  C   UNL     1      23.449  -0.241  53.337  0.00  0.00    +0.000 A 
ATOM      5  C   UNL     1      23.749  -0.935  54.511  0.00  0.00    +0.000 A 
ATOM      6  C   UNL     1      22.703  -1.384  55.288  0.00  0.00    +0.000 A 
ATOM      7  N   UNL     1      21.410  -1.212  54.968  0.00  0.00    +0.000 NA
ATOM      8  C   UNL     1      21.111  -0.630  53.796  0.00  0.00    +0.000 A 
ATOM      9  C   UNL     1      19.762  -0.504  53.484  0.00  0.00    +0.000 A 
ATOM     10  C   UNL     1      19.268   0.028  52.275  0.00  0.00    +0.000 A 
ENDROOT
BRANCH   1  13
ATOM     11  C   UNL     1      20.230   2.376  49.907  0.00  0.00    +0.000 C 
ATOM     12  O   UNL     1      20.357   3.181  50.824  0.00  0.00    +0.000 OA
ATOM     13  N   UNL     1      19.903   1.029  50.075  0.00  0.00    +0.000 N 
ATOM     14  H   UNL     1      19.476   0.510  49.356  0.00  0.00    +0.000 HD
BRANCH  11  17
ATOM     15  C   UNL     1      21.852   3.784  46.454  0.00  0.00    +0.000 C 
ATOM     16  C   UNL     1      21.034   3.251  47.550  0.00  0.00    +0.000 C 
ATOM     17  C   UNL     1      20.546   2.846  48.573  0.00  0.00    +0.000 C 
ENDBRANCH  11  17
ENDBRANCH   1  13
BRANCH   4  18
ATOM     18  O   UNL     1      24.462   0.344  52.578  0.00  0.00    +0.000 OA
BRANCH  18  19
ATOM     19  C   UNL     1      24.254   1.609  52.037  0.00  0.00    +0.000 A 
ATOM     20  C   UNL     1      23.973   2.651  52.913  0.00  0.00    +0.000 A 
ATOM     21  C   UNL     1      23.699   3.934  52.409  0.00  0.00    +0.000 A 
ATOM     22  C   UNL     1      23.676   4.228  51.024  0.00  0.00    +0.000 A 
ATOM     23  C   UNL     1      24.041   3.198  50.153  0.00  0.00    +0.000 A 
ATOM     24  C   UNL     1      24.351   1.905  50.666  0.00  0.00    +0.000 A 
BRANCH  22  25
ATOM     25  C   UNL     1      23.253   5.633  50.659  0.00  0.00    +0.000 C 
ATOM     26  O   UNL     1      23.607   6.496  51.471  0.00  0.00    +0.000 OA
ATOM     27  N   UNL     1      22.454   5.917  49.551  0.00  0.00    +0.000 N 
ATOM     28  H   UNL     1      22.313   5.216  48.875  0.00  0.00    +0.000 HD
BRANCH  27  29
ATOM     29  C   UNL     1      21.834   7.191  49.362  0.00  0.00    +0.000 A 
ATOM     30  C   UNL     1      22.487   8.258  48.747  0.00  0.00    +0.000 A 
ATOM     31  C   UNL     1      21.988   9.555  48.859  0.00  0.00    +0.000 A 
ATOM     32  C   UNL     1      20.782   9.756  49.500  0.00  0.00    +0.000 A 
ATOM     33  C   UNL     1      20.108   8.631  49.950  0.00  0.00    +0.000 A 
ATOM     34  N   UNL     1      20.602   7.357  49.901  0.00  0.00    +0.000 NA
ENDBRANCH  27  29
ENDBRANCH  22  25
ENDBRANCH  18  19
ENDBRANCH   4  18
BRANCH  10  35
ATOM     35  O   UNL     1      17.915   0.026  52.281  0.00  0.00    +0.000 OA
BRANCH  35  36
ATOM     36  C   UNL     1      17.032  -0.803  51.520  0.00  0.00    +0.000 C 
BRANCH  36  37
ATOM     37  C   UNL     1      16.527  -0.069  50.281  0.00  0.00    +0.000 C 
BRANCH  37  38
ATOM     38  C   UNL     1      15.715   1.212  50.557  0.00  0.00    +0.000 C 
BRANCH  38  39
ATOM     39  N   UNL     1      15.527   1.644  51.964  0.00  0.00    +0.000 N 
ATOM     40  C   UNL     1      15.852   3.072  52.136  0.00  0.00    +0.000 C 
ATOM     41  C   UNL     1      15.069   3.933  53.158  0.00  0.00    +0.000 C 
ATOM     42  N   UNL     1      13.712   3.510  53.378  0.00  0.00    +0.000 N 
ATOM     43  C   UNL     1      12.653   4.471  53.485  0.00  0.00    +0.000 C 
ATOM     44  C   UNL     1      13.481   2.095  53.524  0.00  0.00    +0.000 C 
ATOM     45  C   UNL     1      14.161   1.267  52.409  0.00  0.00    +0.000 C 
ATOM     46  H   UNL     1      16.184   1.159  52.572  0.00  0.00    +0.000 HD
ATOM     47  H   UNL     1      12.845   3.826  52.944  0.00  0.00    +0.000 HD
ENDBRANCH  38  39
ENDBRANCH  37  38
ENDBRANCH  36  37
ENDBRANCH  35  36
ENDBRANCH  10  35
TORSDOF 11
ENDMDL
