MODEL 1
REMARK VINA RESULT:    -8.415      0.000      0.000
REMARK INTER + INTRA:         -16.148
REMARK INTER:                 -14.319
REMARK INTRA:                  -1.830
REMARK UNBOUND:                -1.830
REMARK  Name = 
REMARK  15 active torsions:
REMARK  status: ('A' for Active; 'I' for Inactive)
REMARK    1  A    between atoms: C_1  and  C_2
REMARK    2  A    between atoms: C_2  and  O_3
REMARK    3  A    between atoms: O_3  and  C_4
REMARK    4  A    between atoms: C_9  and  C_10
REMARK    5  A    between atoms: C_12  and  N_13
REMARK    6  A    between atoms: N_13  and  C_14
REMARK    7  A    between atoms: C_17  and  O_18
REMARK    8  A    between atoms: O_18  and  C_19
REMARK    9  A    between atoms: C_19  and  C_20
REMARK   10  A    between atoms: C_31  and  N_32
REMARK   11  A    between atoms: C_33  and  C_35
REMARK   12  A    between atoms: C_35  and  C_36
REMARK   13  A    between atoms: C_36  and  N_37
REMARK   14  A    between atoms: N_37  and  C_38
REMARK   15  A    between atoms: N_37  and  C_39
REMARK                            x       y       z     vdW  Elec       q    Type
REMARK                         _______ _______ _______ _____ _____    ______ ____
ROOT
ATOM      1  C   UNL     1      26.789   2.077  52.537  0.00  0.00    +0.000 A 
ATOM      2  C   UNL     1      26.264   0.972  53.235  0.00  0.00    +0.000 A 
ATOM      3  C   UNL     1      24.930   0.568  53.126  0.00  0.00    +0.000 A 
ATOM      4  N   UNL     1      24.543  -0.566  53.762  0.00  0.00    +0.000 NA
ATOM      5  C   UNL     1      23.232  -0.906  53.807  0.00  0.00    +0.000 A 
ATOM      6  C   UNL     1      22.209  -0.121  53.315  0.00  0.00    +0.000 A 
ATOM      7  C   UNL     1      22.612   1.024  52.567  0.00  0.00    +0.000 A 
ATOM      8  C   UNL     1      24.040   1.371  52.389  0.00  0.00    +0.000 A 
ATOM      9  C   UNL     1      24.668   2.422  51.549  0.00  0.00    +0.000 A 
ATOM     10  C   UNL     1      26.051   2.704  51.534  0.00  0.00    +0.000 A 
ENDROOT
BRANCH  10  11
ATOM     11  N   UNL     1      26.830   3.528  50.615  0.00  0.00    +0.000 N 
ATOM     12  C   UNL     1      26.425   4.242  49.507  0.00  0.00    +0.000 C 
ATOM     13  O   UNL     1      25.241   4.228  49.148  0.00  0.00    +0.000 OA
ATOM     14  H   UNL     1      27.792   3.584  50.817  0.00  0.00    +0.000 HD
BRANCH  12  15
ATOM     15  C   UNL     1      27.447   5.132  48.661  0.00  0.00    +0.000 C 
BRANCH  15  16
ATOM     16  C   UNL     1      27.332   6.658  48.352  0.00  0.00    +0.000 C 
BRANCH  16  17
ATOM     17  N   UNL     1      27.548   7.665  49.444  0.00  0.00    +0.000 N 
ATOM     18  C   UNL     1      26.297   8.084  50.106  0.00  0.00    +0.000 C 
ATOM     19  C   UNL     1      28.355   8.867  49.224  0.00  0.00    +0.000 C 
ATOM     20  H   UNL     1      28.145   7.077  50.025  0.00  0.00    +0.000 HD
ENDBRANCH  16  17
ENDBRANCH  15  16
ENDBRANCH  12  15
ENDBRANCH  10  11
BRANCH   6  21
ATOM     21  C   UNL     1      20.834  -0.510  53.639  0.00  0.00    +0.000 C 
ATOM     22  N   UNL     1      19.715  -0.748  53.819  0.00  0.00    +0.000 NA
ENDBRANCH   6  21
BRANCH   7  23
ATOM     23  N   UNL     1      21.624   1.927  52.053  0.00  0.00    +0.000 N 
ATOM     24  H   UNL     1      21.103   2.422  52.725  0.00  0.00    +0.000 HD
BRANCH  23  25
ATOM     25  C   UNL     1      21.303   2.195  50.704  0.00  0.00    +0.000 A 
ATOM     26  C   UNL     1      21.694   1.347  49.669  0.00  0.00    +0.000 A 
ATOM     27  C   UNL     1      21.452   1.681  48.338  0.00  0.00    +0.000 A 
ATOM     28  C   UNL     1      20.816   2.879  48.007  0.00  0.00    +0.000 A 
ATOM     29  C   UNL     1      20.420   3.737  49.042  0.00  0.00    +0.000 A 
ATOM     30 CL   UNL     1      19.671   5.260  48.711  0.00  0.00    +0.000 Cl
ATOM     31  C   UNL     1      20.644   3.387  50.380  0.00  0.00    +0.000 A 
BRANCH  28  32
ATOM     32  O   UNL     1      20.581   3.276  46.712  0.00  0.00    +0.000 OA
BRANCH  32  33
ATOM     33  C   UNL     1      21.754   3.574  45.949  0.00  0.00    +0.000 C 
BRANCH  33  34
ATOM     34  C   UNL     1      22.110   5.039  45.943  0.00  0.00    +0.000 A 
ATOM     35  C   UNL     1      21.951   5.826  44.807  0.00  0.00    +0.000 A 
ATOM     36  C   UNL     1      22.446   7.127  44.819  0.00  0.00    +0.000 A 
ATOM     37  C   UNL     1      23.086   7.605  45.956  0.00  0.00    +0.000 A 
ATOM     38  C   UNL     1      23.193   6.764  47.049  0.00  0.00    +0.000 A 
ATOM     39  N   UNL     1      22.724   5.499  47.067  0.00  0.00    +0.000 NA
ENDBRANCH  33  34
ENDBRANCH  32  33
ENDBRANCH  28  32
ENDBRANCH  23  25
ENDBRANCH   7  23
BRANCH   1  40
ATOM     40  O   UNL     1      28.079   2.501  52.786  0.00  0.00    +0.000 OA
BRANCH  40  42
ATOM     41  C   UNL     1      29.658   2.107  54.669  0.00  0.00    +0.000 C 
ATOM     42  C   UNL     1      28.839   1.513  53.524  0.00  0.00    +0.000 C 
ENDBRANCH  40  42
ENDBRANCH   1  40
TORSDOF 12
ENDMDL
MODEL 2
REMARK VINA RESULT:    -8.270      2.936      7.575
REMARK INTER + INTRA:         -15.901
REMARK INTER:                 -14.068
REMARK INTRA:                  -1.833
REMARK UNBOUND:                -1.830
REMARK  Name = 
REMARK  15 active torsions:
REMARK  status: ('A' for Active; 'I' for Inactive)
REMARK    1  A    between atoms: C_1  and  C_2
REMARK    2  A    between atoms: C_2  and  O_3
REMARK    3  A    between atoms: O_3  and  C_4
REMARK    4  A    between atoms: C_9  and  C_10
REMARK    5  A    between atoms: C_12  and  N_13
REMARK    6  A    between atoms: N_13  and  C_14
REMARK    7  A    between atoms: C_17  and  O_18
REMARK    8  A    between atoms: O_18  and  C_19
REMARK    9  A    between atoms: C_19  and  C_20
REMARK   10  A    between atoms: C_31  and  N_32
REMARK   11  A    between atoms: C_33  and  C_35
REMARK   12  A    between atoms: C_35  and  C_36
REMARK   13  A    between atoms: C_36  and  N_37
REMARK   14  A    between atoms: N_37  and  C_38
REMARK   15  A    between atoms: N_37  and  C_39
REMARK                            x       y       z     vdW  Elec       q    Type
REMARK                         _______ _______ _______ _____ _____    ______ ____
ROOT
ATOM      1  C   UNL     1      21.164   6.700  49.213  0.00  0.00    +0.000 A 
ATOM      2  C   UNL     1      19.876   6.288  49.605  0.00  0.00    +0.000 A 
ATOM      3  C   UNL     1      19.617   5.035  50.169  0.00  0.00    +0.000 A 
ATOM      4  N   UNL     1      18.360   4.767  50.603  0.00  0.00    +0.000 NA
ATOM      5  C   UNL     1      18.035   3.517  51.012  0.00  0.00    +0.000 A 
ATOM      6  C   UNL     1      18.883   2.431  50.940  0.00  0.00    +0.000 A 
ATOM      7  C   UNL     1      20.230   2.721  50.572  0.00  0.00    +0.000 A 
ATOM      8  C   UNL     1      20.663   4.095  50.231  0.00  0.00    +0.000 A 
ATOM      9  C   UNL     1      22.022   4.626  49.960  0.00  0.00    +0.000 A 
ATOM     10  C   UNL     1      22.289   5.954  49.561  0.00  0.00    +0.000 A 
ENDROOT
BRANCH  10  11
ATOM     11  N   UNL     1      23.558   6.672  49.483  0.00  0.00    +0.000 N 
ATOM     12  C   UNL     1      24.561   6.800  50.420  0.00  0.00    +0.000 C 
ATOM     13  O   UNL     1      24.451   6.275  51.535  0.00  0.00    +0.000 OA
ATOM     14  H   UNL     1      23.724   7.135  48.631  0.00  0.00    +0.000 HD
BRANCH  12  15
ATOM     15  C   UNL     1      25.909   7.598  50.106  0.00  0.00    +0.000 C 
BRANCH  15  16
ATOM     16  C   UNL     1      26.987   7.239  49.036  0.00  0.00    +0.000 C 
BRANCH  16  17
ATOM     17  N   UNL     1      27.700   5.919  49.101  0.00  0.00    +0.000 N 
ATOM     18  C   UNL     1      28.879   5.850  48.216  0.00  0.00    +0.000 C 
ATOM     19  C   UNL     1      26.975   4.653  48.970  0.00  0.00    +0.000 C 
ATOM     20  H   UNL     1      27.931   5.963  50.093  0.00  0.00    +0.000 HD
ENDBRANCH  16  17
ENDBRANCH  15  16
ENDBRANCH  12  15
ENDBRANCH  10  11
BRANCH   6  21
ATOM     21  C   UNL     1      18.318   1.105  51.203  0.00  0.00    +0.000 C 
ATOM     22  N   UNL     1      17.793   0.082  51.340  0.00  0.00    +0.000 NA
ENDBRANCH   6  21
BRANCH   7  23
ATOM     23  N   UNL     1      21.177   1.654  50.425  0.00  0.00    +0.000 N 
ATOM     24  H   UNL     1      21.137   1.157  49.577  0.00  0.00    +0.000 HD
BRANCH  23  25
ATOM     25  C   UNL     1      22.159   1.226  51.345  0.00  0.00    +0.000 A 
ATOM     26  C   UNL     1      23.491   1.626  51.244  0.00  0.00    +0.000 A 
ATOM     27  C   UNL     1      24.461   1.113  52.103  0.00  0.00    +0.000 A 
ATOM     28  C   UNL     1      24.123   0.179  53.086  0.00  0.00    +0.000 A 
ATOM     29  C   UNL     1      22.786  -0.228  53.192  0.00  0.00    +0.000 A 
ATOM     30 CL   UNL     1      22.299  -1.416  54.351  0.00  0.00    +0.000 Cl
ATOM     31  C   UNL     1      21.810   0.307  52.342  0.00  0.00    +0.000 A 
BRANCH  28  32
ATOM     32  O   UNL     1      25.042  -0.384  53.938  0.00  0.00    +0.000 OA
BRANCH  32  33
ATOM     33  C   UNL     1      26.007  -1.235  53.310  0.00  0.00    +0.000 C 
BRANCH  33  34
ATOM     34  C   UNL     1      27.431  -0.790  53.529  0.00  0.00    +0.000 A 
ATOM     35  C   UNL     1      27.759   0.550  53.714  0.00  0.00    +0.000 A 
ATOM     36  C   UNL     1      29.102   0.911  53.751  0.00  0.00    +0.000 A 
ATOM     37  C   UNL     1      30.078  -0.067  53.599  0.00  0.00    +0.000 A 
ATOM     38  C   UNL     1      29.670  -1.378  53.432  0.00  0.00    +0.000 A 
ATOM     39  N   UNL     1      28.377  -1.758  53.391  0.00  0.00    +0.000 NA
ENDBRANCH  33  34
ENDBRANCH  32  33
ENDBRANCH  28  32
ENDBRANCH  23  25
ENDBRANCH   7  23
BRANCH   1  40
ATOM     40  O   UNL     1      21.333   7.897  48.547  0.00  0.00    +0.000 OA
BRANCH  40  42
ATOM     41  C   UNL     1      20.265  10.010  49.319  0.00  0.00    +0.000 C 
ATOM     42  C   UNL     1      20.123   8.694  48.554  0.00  0.00    +0.000 C 
ENDBRANCH  40  42
ENDBRANCH   1  40
TORSDOF 12
ENDMDL
MODEL 3
REMARK VINA RESULT:    -8.250      3.265      7.880
REMARK INTER + INTRA:         -15.867
REMARK INTER:                 -14.006
REMARK INTRA:                  -1.862
REMARK UNBOUND:                -1.830
REMARK  Name = 
REMARK  15 active torsions:
REMARK  status: ('A' for Active; 'I' for Inactive)
REMARK    1  A    between atoms: C_1  and  C_2
REMARK    2  A    between atoms: C_2  and  O_3
REMARK    3  A    between atoms: O_3  and  C_4
REMARK    4  A    between atoms: C_9  and  C_10
REMARK    5  A    between atoms: C_12  and  N_13
REMARK    6  A    between atoms: N_13  and  C_14
REMARK    7  A    between atoms: C_17  and  O_18
REMARK    8  A    between atoms: O_18  and  C_19
REMARK    9  A    between atoms: C_19  and  C_20
REMARK   10  A    between atoms: C_31  and  N_32
REMARK   11  A    between atoms: C_33  and  C_35
REMARK   12  A    between atoms: C_35  and  C_36
REMARK   13  A    between atoms: C_36  and  N_37
REMARK   14  A    between atoms: N_37  and  C_38
REMARK   15  A    between atoms: N_37  and  C_39
REMARK                            x       y       z     vdW  Elec       q    Type
REMARK                         _______ _______ _______ _____ _____    ______ ____
ROOT
ATOM      1  C   UNL     1      26.196   4.220  49.491  0.00  0.00    +0.000 A 
ATOM      2  C   UNL     1      25.295   5.190  49.013  0.00  0.00    +0.000 A 
ATOM      3  C   UNL     1      23.924   4.952  48.875  0.00  0.00    +0.000 A 
ATOM      4  N   UNL     1      23.123   5.979  48.497  0.00  0.00    +0.000 NA
ATOM      5  C   UNL     1      21.819   5.751  48.205  0.00  0.00    +0.000 A 
ATOM      6  C   UNL     1      21.237   4.501  48.175  0.00  0.00    +0.000 A 
ATOM      7  C   UNL     1      22.045   3.430  48.657  0.00  0.00    +0.000 A 
ATOM      8  C   UNL     1      23.440   3.649  49.101  0.00  0.00    +0.000 A 
ATOM      9  C   UNL     1      24.391   2.715  49.753  0.00  0.00    +0.000 A 
ATOM     10  C   UNL     1      25.734   3.031  50.052  0.00  0.00    +0.000 A 
ENDROOT
BRANCH  10  11
ATOM     11  N   UNL     1      26.703   2.318  50.880  0.00  0.00    +0.000 N 
ATOM     12  C   UNL     1      26.778   2.203  52.252  0.00  0.00    +0.000 C 
ATOM     13  O   UNL     1      25.952   2.769  52.978  0.00  0.00    +0.000 OA
ATOM     14  H   UNL     1      27.411   1.848  50.384  0.00  0.00    +0.000 HD
BRANCH  12  15
ATOM     15  C   UNL     1      27.905   1.319  52.960  0.00  0.00    +0.000 C 
BRANCH  15  16
ATOM     16  C   UNL     1      27.686   0.127  53.944  0.00  0.00    +0.000 C 
BRANCH  16  17
ATOM     17  N   UNL     1      26.629  -0.900  53.656  0.00  0.00    +0.000 N 
ATOM     18  C   UNL     1      26.896  -1.684  52.435  0.00  0.00    +0.000 C 
ATOM     19  C   UNL     1      25.207  -0.551  53.654  0.00  0.00    +0.000 C 
ATOM     20  H   UNL     1      26.746  -1.429  54.520  0.00  0.00    +0.000 HD
ENDBRANCH  16  17
ENDBRANCH  15  16
ENDBRANCH  12  15
ENDBRANCH  10  11
BRANCH   6  21
ATOM     21  C   UNL     1      19.885   4.391  47.622  0.00  0.00    +0.000 C 
ATOM     22  N   UNL     1      18.838   4.199  47.164  0.00  0.00    +0.000 NA
ENDBRANCH   6  21
BRANCH   7  23
ATOM     23  N   UNL     1      21.546   2.086  48.624  0.00  0.00    +0.000 N 
ATOM     24  H   UNL     1      21.769   1.564  47.820  0.00  0.00    +0.000 HD
BRANCH  23  25
ATOM     25  C   UNL     1      20.774   1.417  49.599  0.00  0.00    +0.000 A 
ATOM     26  C   UNL     1      19.380   1.437  49.580  0.00  0.00    +0.000 A 
ATOM     27  C   UNL     1      18.640   0.854  50.606  0.00  0.00    +0.000 A 
ATOM     28  C   UNL     1      19.278   0.238  51.685  0.00  0.00    +0.000 A 
ATOM     29  C   UNL     1      20.679   0.214  51.712  0.00  0.00    +0.000 A 
ATOM     30 CL   UNL     1      21.541  -0.487  53.037  0.00  0.00    +0.000 Cl
ATOM     31  C   UNL     1      21.420   0.781  50.667  0.00  0.00    +0.000 A 
BRANCH  28  32
ATOM     32  O   UNL     1      18.600  -0.324  52.740  0.00  0.00    +0.000 OA
BRANCH  32  33
ATOM     33  C   UNL     1      17.218  -0.601  52.493  0.00  0.00    +0.000 C 
BRANCH  33  34
ATOM     34  C   UNL     1      16.806  -1.998  52.886  0.00  0.00    +0.000 A 
ATOM     35  C   UNL     1      17.675  -2.856  53.554  0.00  0.00    +0.000 A 
ATOM     36  C   UNL     1      17.293  -4.180  53.746  0.00  0.00    +0.000 A 
ATOM     37  C   UNL     1      16.062  -4.613  53.265  0.00  0.00    +0.000 A 
ATOM     38  C   UNL     1      15.251  -3.695  52.623  0.00  0.00    +0.000 A 
ATOM     39  N   UNL     1      15.595  -2.407  52.421  0.00  0.00    +0.000 NA
ENDBRANCH  33  34
ENDBRANCH  32  33
ENDBRANCH  28  32
ENDBRANCH  23  25
ENDBRANCH   7  23
BRANCH   1  40
ATOM     40  O   UNL     1      27.553   4.475  49.483  0.00  0.00    +0.000 OA
BRANCH  40  42
ATOM     41  C   UNL     1      29.430   5.521  48.226  0.00  0.00    +0.000 C 
ATOM     42  C   UNL     1      27.920   5.409  48.439  0.00  0.00    +0.000 C 
ENDBRANCH  40  42
ENDBRANCH   1  40
TORSDOF 12
ENDMDL
MODEL 4
REMARK VINA RESULT:    -8.180      2.729      7.308
REMARK INTER + INTRA:         -15.748
REMARK INTER:                 -13.870
REMARK INTRA:                  -1.878
REMARK UNBOUND:                -1.830
REMARK  Name = 
REMARK  15 active torsions:
REMARK  status: ('A' for Active; 'I' for Inactive)
REMARK    1  A    between atoms: C_1  and  C_2
REMARK    2  A    between atoms: C_2  and  O_3
REMARK    3  A    between atoms: O_3  and  C_4
REMARK    4  A    between atoms: C_9  and  C_10
REMARK    5  A    between atoms: C_12  and  N_13
REMARK    6  A    between atoms: N_13  and  C_14
REMARK    7  A    between atoms: C_17  and  O_18
REMARK    8  A    between atoms: O_18  and  C_19
REMARK    9  A    between atoms: C_19  and  C_20
REMARK   10  A    between atoms: C_31  and  N_32
REMARK   11  A    between atoms: C_33  and  C_35
REMARK   12  A    between atoms: C_35  and  C_36
REMARK   13  A    between atoms: C_36  and  N_37
REMARK   14  A    between atoms: N_37  and  C_38
REMARK   15  A    between atoms: N_37  and  C_39
REMARK                            x       y       z     vdW  Elec       q    Type
REMARK                         _______ _______ _______ _____ _____    ______ ____
ROOT
ATOM      1  C   UNL     1      20.384   3.942  48.571  0.00  0.00    +0.000 A 
ATOM      2  C   UNL     1      19.442   2.898  48.508  0.00  0.00    +0.000 A 
ATOM      3  C   UNL     1      19.029   2.177  49.634  0.00  0.00    +0.000 A 
ATOM      4  N   UNL     1      18.046   1.254  49.487  0.00  0.00    +0.000 NA
ATOM      5  C   UNL     1      17.727   0.433  50.517  0.00  0.00    +0.000 A 
ATOM      6  C   UNL     1      18.403   0.396  51.719  0.00  0.00    +0.000 A 
ATOM      7  C   UNL     1      19.375   1.420  51.914  0.00  0.00    +0.000 A 
ATOM      8  C   UNL     1      19.675   2.417  50.861  0.00  0.00    +0.000 A 
ATOM      9  C   UNL     1      20.535   3.626  50.910  0.00  0.00    +0.000 A 
ATOM     10  C   UNL     1      20.803   4.453  49.798  0.00  0.00    +0.000 A 
ENDROOT
BRANCH  10  11
ATOM     11  N   UNL     1      21.425   5.773  49.740  0.00  0.00    +0.000 N 
ATOM     12  C   UNL     1      22.759   6.122  49.743  0.00  0.00    +0.000 C 
ATOM     13  O   UNL     1      23.637   5.255  49.824  0.00  0.00    +0.000 OA
ATOM     14  H   UNL     1      20.797   6.529  49.689  0.00  0.00    +0.000 HD
BRANCH  12  15
ATOM     15  C   UNL     1      23.230   7.644  49.617  0.00  0.00    +0.000 C 
BRANCH  15  16
ATOM     16  C   UNL     1      24.515   8.285  50.228  0.00  0.00    +0.000 C 
BRANCH  16  17
ATOM     17  N   UNL     1      25.871   7.805  49.799  0.00  0.00    +0.000 N 
ATOM     18  C   UNL     1      26.953   8.760  50.108  0.00  0.00    +0.000 C 
ATOM     19  C   UNL     1      26.107   7.295  48.447  0.00  0.00    +0.000 C 
ATOM     20  H   UNL     1      25.884   6.966  50.378  0.00  0.00    +0.000 HD
ENDBRANCH  16  17
ENDBRANCH  15  16
ENDBRANCH  12  15
ENDBRANCH  10  11
BRANCH   6  21
ATOM     21  C   UNL     1      18.092  -0.697  52.644  0.00  0.00    +0.000 C 
ATOM     22  N   UNL     1      17.743  -1.526  53.373  0.00  0.00    +0.000 NA
ENDBRANCH   6  21
BRANCH   7  23
ATOM     23  N   UNL     1      20.163   1.440  53.112  0.00  0.00    +0.000 N 
ATOM     24  H   UNL     1      19.761   1.902  53.883  0.00  0.00    +0.000 HD
BRANCH  23  25
ATOM     25  C   UNL     1      21.443   0.883  53.326  0.00  0.00    +0.000 A 
ATOM     26  C   UNL     1      22.535   1.209  52.523  0.00  0.00    +0.000 A 
ATOM     27  C   UNL     1      23.763   0.573  52.689  0.00  0.00    +0.000 A 
ATOM     28  C   UNL     1      23.930  -0.414  53.664  0.00  0.00    +0.000 A 
ATOM     29  C   UNL     1      22.837  -0.747  54.475  0.00  0.00    +0.000 A 
ATOM     30 CL   UNL     1      22.951  -1.992  55.670  0.00  0.00    +0.000 Cl
ATOM     31  C   UNL     1      21.609  -0.089  54.320  0.00  0.00    +0.000 A 
BRANCH  28  32
ATOM     32  O   UNL     1      25.108  -1.096  53.851  0.00  0.00    +0.000 OA
BRANCH  32  33
ATOM     33  C   UNL     1      26.147  -0.776  52.920  0.00  0.00    +0.000 C 
BRANCH  33  34
ATOM     34  C   UNL     1      27.174   0.180  53.473  0.00  0.00    +0.000 A 
ATOM     35  C   UNL     1      27.323   1.467  52.964  0.00  0.00    +0.000 A 
ATOM     36  C   UNL     1      28.391   2.242  53.407  0.00  0.00    +0.000 A 
ATOM     37  C   UNL     1      29.279   1.714  54.337  0.00  0.00    +0.000 A 
ATOM     38  C   UNL     1      29.054   0.432  54.802  0.00  0.00    +0.000 A 
ATOM     39  N   UNL     1      28.030  -0.343  54.392  0.00  0.00    +0.000 NA
ENDBRANCH  33  34
ENDBRANCH  32  33
ENDBRANCH  28  32
ENDBRANCH  23  25
ENDBRANCH   7  23
BRANCH   1  40
ATOM     40  O   UNL     1      20.844   4.528  47.408  0.00  0.00    +0.000 OA
BRANCH  40  42
ATOM     41  C   UNL     1      21.610   3.990  45.101  0.00  0.00    +0.000 C 
ATOM     42  C   UNL     1      21.557   3.583  46.574  0.00  0.00    +0.000 C 
ENDBRANCH  40  42
ENDBRANCH   1  40
TORSDOF 12
ENDMDL
MODEL 5
REMARK VINA RESULT:    -8.095      3.656      7.852
REMARK INTER + INTRA:         -15.604
REMARK INTER:                 -13.726
REMARK INTRA:                  -1.877
REMARK UNBOUND:                -1.830
REMARK  Name = 
REMARK  15 active torsions:
REMARK  status: ('A' for Active; 'I' for Inactive)
REMARK    1  A    between atoms: C_1  and  C_2
REMARK    2  A    between atoms: C_2  and  O_3
REMARK    3  A    between atoms: O_3  and  C_4
REMARK    4  A    between atoms: C_9  and  C_10
REMARK    5  A    between atoms: C_12  and  N_13
REMARK    6  A    between atoms: N_13  and  C_14
REMARK    7  A    between atoms: C_17  and  O_18
REMARK    8  A    between atoms: O_18  and  C_19
REMARK    9  A    between atoms: C_19  and  C_20
REMARK   10  A    between atoms: C_31  and  N_32
REMARK   11  A    between atoms: C_33  and  C_35
REMARK   12  A    between atoms: C_35  and  C_36
REMARK   13  A    between atoms: C_36  and  N_37
REMARK   14  A    between atoms: N_37  and  C_38
REMARK   15  A    between atoms: N_37  and  C_39
REMARK                            x       y       z     vdW  Elec       q    Type
REMARK                         _______ _______ _______ _____ _____    ______ ____
ROOT
ATOM      1  C   UNL     1      18.538  -1.063  53.064  0.00  0.00    +0.000 A 
ATOM      2  C   UNL     1      19.536  -1.521  53.945  0.00  0.00    +0.000 A 
ATOM      3  C   UNL     1      20.852  -1.046  53.916  0.00  0.00    +0.000 A 
ATOM      4  N   UNL     1      21.717  -1.479  54.867  0.00  0.00    +0.000 NA
ATOM      5  C   UNL     1      23.032  -1.163  54.783  0.00  0.00    +0.000 A 
ATOM      6  C   UNL     1      23.602  -0.485  53.725  0.00  0.00    +0.000 A 
ATOM      7  C   UNL     1      22.689   0.049  52.769  0.00  0.00    +0.000 A 
ATOM      8  C   UNL     1      21.229  -0.168  52.883  0.00  0.00    +0.000 A 
ATOM      9  C   UNL     1      20.115   0.405  52.088  0.00  0.00    +0.000 A 
ATOM     10  C   UNL     1      18.759   0.046  52.249  0.00  0.00    +0.000 A 
ENDROOT
BRANCH  10  11
ATOM     11  N   UNL     1      17.553   0.674  51.716  0.00  0.00    +0.000 N 
ATOM     12  C   UNL     1      17.243   2.010  51.571  0.00  0.00    +0.000 C 
ATOM     13  O   UNL     1      18.037   2.884  51.936  0.00  0.00    +0.000 OA
ATOM     14  H   UNL     1      16.856   0.049  51.414  0.00  0.00    +0.000 HD
BRANCH  12  15
ATOM     15  C   UNL     1      15.869   2.485  50.906  0.00  0.00    +0.000 C 
BRANCH  15  16
ATOM     16  C   UNL     1      14.874   3.551  51.464  0.00  0.00    +0.000 C 
BRANCH  16  17
ATOM     17  N   UNL     1      14.272   3.376  52.827  0.00  0.00    +0.000 N 
ATOM     18  C   UNL     1      13.790   2.004  53.080  0.00  0.00    +0.000 C 
ATOM     19  C   UNL     1      13.257   4.300  53.337  0.00  0.00    +0.000 C 
ATOM     20  H   UNL     1      15.109   3.623  53.355  0.00  0.00    +0.000 HD
ENDBRANCH  16  17
ENDBRANCH  15  16
ENDBRANCH  12  15
ENDBRANCH  10  11
BRANCH   6  21
ATOM     21  C   UNL     1      25.064  -0.419  53.665  0.00  0.00    +0.000 C 
ATOM     22  N   UNL     1      26.219  -0.361  53.726  0.00  0.00    +0.000 NA
ENDBRANCH   6  21
BRANCH   7  23
ATOM     23  N   UNL     1      23.186   0.730  51.609  0.00  0.00    +0.000 N 
ATOM     24  H   UNL     1      23.476   0.156  50.864  0.00  0.00    +0.000 HD
BRANCH  23  25
ATOM     25  C   UNL     1      23.312   2.121  51.401  0.00  0.00    +0.000 A 
ATOM     26  C   UNL     1      23.443   3.019  52.459  0.00  0.00    +0.000 A 
ATOM     27  C   UNL     1      23.467   4.394  52.236  0.00  0.00    +0.000 A 
ATOM     28  C   UNL     1      23.355   4.909  50.942  0.00  0.00    +0.000 A 
ATOM     29  C   UNL     1      23.223   4.013  49.872  0.00  0.00    +0.000 A 
ATOM     30 CL   UNL     1      23.031   4.574  48.248  0.00  0.00    +0.000 Cl
ATOM     31  C   UNL     1      23.222   2.630  50.099  0.00  0.00    +0.000 A 
BRANCH  28  32
ATOM     32  O   UNL     1      23.340   6.254  50.665  0.00  0.00    +0.000 OA
BRANCH  32  33
ATOM     33  C   UNL     1      24.574   6.936  50.909  0.00  0.00    +0.000 C 
BRANCH  33  34
ATOM     34  C   UNL     1      25.474   7.000  49.700  0.00  0.00    +0.000 A 
ATOM     35  C   UNL     1      26.358   5.971  49.390  0.00  0.00    +0.000 A 
ATOM     36  C   UNL     1      27.270   6.160  48.357  0.00  0.00    +0.000 A 
ATOM     37  C   UNL     1      27.279   7.365  47.665  0.00  0.00    +0.000 A 
ATOM     38  C   UNL     1      26.361   8.334  48.026  0.00  0.00    +0.000 A 
ATOM     39  N   UNL     1      25.465   8.180  49.023  0.00  0.00    +0.000 NA
ENDBRANCH  33  34
ENDBRANCH  32  33
ENDBRANCH  28  32
ENDBRANCH  23  25
ENDBRANCH   7  23
BRANCH   1  40
ATOM     40  O   UNL     1      17.294  -1.662  53.059  0.00  0.00    +0.000 OA
BRANCH  40  42
ATOM     41  C   UNL     1      16.130  -3.862  53.118  0.00  0.00    +0.000 C 
ATOM     42  C   UNL     1      17.356  -3.037  53.511  0.00  0.00    +0.000 C 
ENDBRANCH  40  42
ENDBRANCH   1  40
TORSDOF 12
ENDMDL
MODEL 6
REMARK VINA RESULT:    -8.083      1.985      2.689
REMARK INTER + INTRA:         -15.583
REMARK INTER:                 -14.053
REMARK INTRA:                  -1.530
REMARK UNBOUND:                -1.830
REMARK  Name = 
REMARK  15 active torsions:
REMARK  status: ('A' for Active; 'I' for Inactive)
REMARK    1  A    between atoms: C_1  and  C_2
REMARK    2  A    between atoms: C_2  and  O_3
REMARK    3  A    between atoms: O_3  and  C_4
REMARK    4  A    between atoms: C_9  and  C_10
REMARK    5  A    between atoms: C_12  and  N_13
REMARK    6  A    between atoms: N_13  and  C_14
REMARK    7  A    between atoms: C_17  and  O_18
REMARK    8  A    between atoms: O_18  and  C_19
REMARK    9  A    between atoms: C_19  and  C_20
REMARK   10  A    between atoms: C_31  and  N_32
REMARK   11  A    between atoms: C_33  and  C_35
REMARK   12  A    between atoms: C_35  and  C_36
REMARK   13  A    between atoms: C_36  and  N_37
REMARK   14  A    between atoms: N_37  and  C_38
REMARK   15  A    between atoms: N_37  and  C_39
REMARK                            x       y       z     vdW  Elec       q    Type
REMARK                         _______ _______ _______ _____ _____    ______ ____
ROOT
ATOM      1  C   UNL     1      26.702   2.140  52.207  0.00  0.00    +0.000 A 
ATOM      2  C   UNL     1      26.196   1.031  52.911  0.00  0.00    +0.000 A 
ATOM      3  C   UNL     1      24.865   0.612  52.816  0.00  0.00    +0.000 A 
ATOM      4  N   UNL     1      24.496  -0.524  53.458  0.00  0.00    +0.000 NA
ATOM      5  C   UNL     1      23.189  -0.878  53.516  0.00  0.00    +0.000 A 
ATOM      6  C   UNL     1      22.154  -0.105  53.032  0.00  0.00    +0.000 A 
ATOM      7  C   UNL     1      22.537   1.043  52.279  0.00  0.00    +0.000 A 
ATOM      8  C   UNL     1      23.960   1.405  52.086  0.00  0.00    +0.000 A 
ATOM      9  C   UNL     1      24.568   2.461  51.238  0.00  0.00    +0.000 A 
ATOM     10  C   UNL     1      25.948   2.757  51.210  0.00  0.00    +0.000 A 
ENDROOT
BRANCH  10  11
ATOM     11  N   UNL     1      26.710   3.588  50.281  0.00  0.00    +0.000 N 
ATOM     12  C   UNL     1      26.288   4.614  49.463  0.00  0.00    +0.000 C 
ATOM     13  O   UNL     1      25.096   4.942  49.428  0.00  0.00    +0.000 OA
ATOM     14  H   UNL     1      27.672   3.385  50.233  0.00  0.00    +0.000 HD
BRANCH  12  15
ATOM     15  C   UNL     1      27.311   5.438  48.553  0.00  0.00    +0.000 C 
BRANCH  15  16
ATOM     16  C   UNL     1      28.851   5.212  48.428  0.00  0.00    +0.000 C 
BRANCH  16  17
ATOM     17  N   UNL     1      29.806   6.265  48.911  0.00  0.00    +0.000 N 
ATOM     18  C   UNL     1      29.633   7.564  48.232  0.00  0.00    +0.000 C 
ATOM     19  C   UNL     1      31.244   6.004  49.005  0.00  0.00    +0.000 C 
ATOM     20  H   UNL     1      29.497   6.262  49.883  0.00  0.00    +0.000 HD
ENDBRANCH  16  17
ENDBRANCH  15  16
ENDBRANCH  12  15
ENDBRANCH  10  11
BRANCH   6  21
ATOM     21  C   UNL     1      20.786  -0.507  53.371  0.00  0.00    +0.000 C 
ATOM     22  N   UNL     1      19.671  -0.746  53.573  0.00  0.00    +0.000 NA
ENDBRANCH   6  21
BRANCH   7  23
ATOM     23  N   UNL     1      21.535   1.935  51.773  0.00  0.00    +0.000 N 
ATOM     24  H   UNL     1      20.614   1.587  51.766  0.00  0.00    +0.000 HD
BRANCH  23  25
ATOM     25  C   UNL     1      21.702   3.249  51.283  0.00  0.00    +0.000 A 
ATOM     26  C   UNL     1      21.846   4.343  52.135  0.00  0.00    +0.000 A 
ATOM     27  C   UNL     1      21.911   5.640  51.631  0.00  0.00    +0.000 A 
ATOM     28  C   UNL     1      21.826   5.878  50.257  0.00  0.00    +0.000 A 
ATOM     29  C   UNL     1      21.680   4.783  49.395  0.00  0.00    +0.000 A 
ATOM     30 CL   UNL     1      21.520   4.999  47.686  0.00  0.00    +0.000 Cl
ATOM     31  C   UNL     1      21.639   3.478  49.903  0.00  0.00    +0.000 A 
BRANCH  28  32
ATOM     32  O   UNL     1      21.851   7.137  49.707  0.00  0.00    +0.000 OA
BRANCH  32  33
ATOM     33  C   UNL     1      22.911   7.979  50.171  0.00  0.00    +0.000 C 
BRANCH  33  34
ATOM     34  C   UNL     1      23.947   8.277  49.116  0.00  0.00    +0.000 A 
ATOM     35  C   UNL     1      23.799   7.841  47.803  0.00  0.00    +0.000 A 
ATOM     36  C   UNL     1      24.860   8.009  46.918  0.00  0.00    +0.000 A 
ATOM     37  C   UNL     1      26.036   8.601  47.365  0.00  0.00    +0.000 A 
ATOM     38  C   UNL     1      26.098   9.019  48.682  0.00  0.00    +0.000 A 
ATOM     39  N   UNL     1      25.088   8.869  49.562  0.00  0.00    +0.000 NA
ENDBRANCH  33  34
ENDBRANCH  32  33
ENDBRANCH  28  32
ENDBRANCH  23  25
ENDBRANCH   7  23
BRANCH   1  40
ATOM     40  O   UNL     1      27.990   2.578  52.442  0.00  0.00    +0.000 OA
BRANCH  40  42
ATOM     41  C   UNL     1      29.474   0.990  53.657  0.00  0.00    +0.000 C 
ATOM     42  C   UNL     1      28.478   2.148  53.736  0.00  0.00    +0.000 C 
ENDBRANCH  40  42
ENDBRANCH   1  40
TORSDOF 12
ENDMDL
MODEL 7
REMARK VINA RESULT:    -8.058      3.105      7.029
REMARK INTER + INTRA:         -15.540
REMARK INTER:                 -13.730
REMARK INTRA:                  -1.810
REMARK UNBOUND:                -1.830
REMARK  Name = 
REMARK  15 active torsions:
REMARK  status: ('A' for Active; 'I' for Inactive)
REMARK    1  A    between atoms: C_1  and  C_2
REMARK    2  A    between atoms: C_2  and  O_3
REMARK    3  A    between atoms: O_3  and  C_4
REMARK    4  A    between atoms: C_9  and  C_10
REMARK    5  A    between atoms: C_12  and  N_13
REMARK    6  A    between atoms: N_13  and  C_14
REMARK    7  A    between atoms: C_17  and  O_18
REMARK    8  A    between atoms: O_18  and  C_19
REMARK    9  A    between atoms: C_19  and  C_20
REMARK   10  A    between atoms: C_31  and  N_32
REMARK   11  A    between atoms: C_33  and  C_35
REMARK   12  A    between atoms: C_35  and  C_36
REMARK   13  A    between atoms: C_36  and  N_37
REMARK   14  A    between atoms: N_37  and  C_38
REMARK   15  A    between atoms: N_37  and  C_39
REMARK                            x       y       z     vdW  Elec       q    Type
REMARK                         _______ _______ _______ _____ _____    ______ ____
ROOT
ATOM      1  C   UNL     1      23.667   1.075  52.408  0.00  0.00    +0.000 A 
ATOM      2  C   UNL     1      22.403   1.296  51.829  0.00  0.00    +0.000 A 
ATOM      3  C   UNL     1      22.061   2.488  51.182  0.00  0.00    +0.000 A 
ATOM      4  N   UNL     1      20.852   2.570  50.573  0.00  0.00    +0.000 NA
ATOM      5  C   UNL     1      20.423   3.754  50.070  0.00  0.00    +0.000 A 
ATOM      6  C   UNL     1      21.102   4.947  50.208  0.00  0.00    +0.000 A 
ATOM      7  C   UNL     1      22.410   4.854  50.767  0.00  0.00    +0.000 A 
ATOM      8  C   UNL     1      22.970   3.562  51.221  0.00  0.00    +0.000 A 
ATOM      9  C   UNL     1      24.337   3.229  51.695  0.00  0.00    +0.000 A 
ATOM     10  C   UNL     1      24.720   1.961  52.183  0.00  0.00    +0.000 A 
ENDROOT
BRANCH  10  11
ATOM     11  N   UNL     1      26.050   1.426  52.462  0.00  0.00    +0.000 N 
ATOM     12  C   UNL     1      27.021   1.878  53.329  0.00  0.00    +0.000 C 
ATOM     13  O   UNL     1      26.836   2.897  54.005  0.00  0.00    +0.000 OA
ATOM     14  H   UNL     1      26.290   0.618  51.953  0.00  0.00    +0.000 HD
BRANCH  12  15
ATOM     15  C   UNL     1      28.404   1.102  53.522  0.00  0.00    +0.000 C 
BRANCH  15  16
ATOM     16  C   UNL     1      28.640  -0.215  54.327  0.00  0.00    +0.000 C 
BRANCH  16  17
ATOM     17  N   UNL     1      28.259  -1.539  53.730  0.00  0.00    +0.000 N 
ATOM     18  C   UNL     1      29.413  -2.291  53.199  0.00  0.00    +0.000 C 
ATOM     19  C   UNL     1      27.173  -1.652  52.755  0.00  0.00    +0.000 C 
ATOM     20  H   UNL     1      27.862  -1.937  54.580  0.00  0.00    +0.000 HD
ENDBRANCH  16  17
ENDBRANCH  15  16
ENDBRANCH  12  15
ENDBRANCH  10  11
BRANCH   6  21
ATOM     21  C   UNL     1      20.408   6.176  49.816  0.00  0.00    +0.000 C 
ATOM     22  N   UNL     1      19.948   7.202  49.535  0.00  0.00    +0.000 NA
ENDBRANCH   6  21
BRANCH   7  23
ATOM     23  N   UNL     1      23.177   6.044  50.993  0.00  0.00    +0.000 N 
ATOM     24  H   UNL     1      23.029   6.494  51.856  0.00  0.00    +0.000 HD
BRANCH  23  25
ATOM     25  C   UNL     1      24.118   6.653  50.134  0.00  0.00    +0.000 A 
ATOM     26  C   UNL     1      24.217   6.313  48.785  0.00  0.00    +0.000 A 
ATOM     27  C   UNL     1      25.217   6.854  47.980  0.00  0.00    +0.000 A 
ATOM     28  C   UNL     1      26.151   7.750  48.507  0.00  0.00    +0.000 A 
ATOM     29  C   UNL     1      26.058   8.097  49.862  0.00  0.00    +0.000 A 
ATOM     30 CL   UNL     1      27.205   9.161  50.598  0.00  0.00    +0.000 Cl
ATOM     31  C   UNL     1      25.037   7.568  50.662  0.00  0.00    +0.000 A 
BRANCH  28  32
ATOM     32  O   UNL     1      27.177   8.290  47.769  0.00  0.00    +0.000 OA
BRANCH  32  33
ATOM     33  C   UNL     1      28.191   7.360  47.373  0.00  0.00    +0.000 C 
BRANCH  33  34
ATOM     34  C   UNL     1      29.510   7.577  48.071  0.00  0.00    +0.000 A 
ATOM     35  C   UNL     1      30.316   6.512  48.460  0.00  0.00    +0.000 A 
ATOM     36  C   UNL     1      31.440   6.771  49.239  0.00  0.00    +0.000 A 
ATOM     37  C   UNL     1      31.725   8.079  49.612  0.00  0.00    +0.000 A 
ATOM     38  C   UNL     1      30.881   9.083  49.176  0.00  0.00    +0.000 A 
ATOM     39  N   UNL     1      29.786   8.863  48.421  0.00  0.00    +0.000 NA
ENDBRANCH  33  34
ENDBRANCH  32  33
ENDBRANCH  28  32
ENDBRANCH  23  25
ENDBRANCH   7  23
BRANCH   1  40
ATOM     40  O   UNL     1      23.900  -0.071  53.141  0.00  0.00    +0.000 OA
BRANCH  40  42
ATOM     41  C   UNL     1      22.687  -1.205  54.996  0.00  0.00    +0.000 C 
ATOM     42  C   UNL     1      22.665  -0.709  53.550  0.00  0.00    +0.000 C 
ENDBRANCH  40  42
ENDBRANCH   1  40
TORSDOF 12
ENDMDL
MODEL 8
REMARK VINA RESULT:    -7.972      4.842     11.036
REMARK INTER + INTRA:         -15.394
REMARK INTER:                 -13.639
REMARK INTRA:                  -1.755
REMARK UNBOUND:                -1.830
REMARK  Name = 
REMARK  15 active torsions:
REMARK  status: ('A' for Active; 'I' for Inactive)
REMARK    1  A    between atoms: C_1  and  C_2
REMARK    2  A    between atoms: C_2  and  O_3
REMARK    3  A    between atoms: O_3  and  C_4
REMARK    4  A    between atoms: C_9  and  C_10
REMARK    5  A    between atoms: C_12  and  N_13
REMARK    6  A    between atoms: N_13  and  C_14
REMARK    7  A    between atoms: C_17  and  O_18
REMARK    8  A    between atoms: O_18  and  C_19
REMARK    9  A    between atoms: C_19  and  C_20
REMARK   10  A    between atoms: C_31  and  N_32
REMARK   11  A    between atoms: C_33  and  C_35
REMARK   12  A    between atoms: C_35  and  C_36
REMARK   13  A    between atoms: C_36  and  N_37
REMARK   14  A    between atoms: N_37  and  C_38
REMARK   15  A    between atoms: N_37  and  C_39
REMARK                            x       y       z     vdW  Elec       q    Type
REMARK                         _______ _______ _______ _____ _____    ______ ____
ROOT
ATOM      1  C   UNL     1      16.036   0.232  52.408  0.00  0.00    +0.000 A 
ATOM      2  C   UNL     1      16.049   1.424  51.659  0.00  0.00    +0.000 A 
ATOM      3  C   UNL     1      17.063   1.739  50.748  0.00  0.00    +0.000 A 
ATOM      4  N   UNL     1      16.938   2.866  50.004  0.00  0.00    +0.000 NA
ATOM      5  C   UNL     1      17.966   3.283  49.226  0.00  0.00    +0.000 A 
ATOM      6  C   UNL     1      19.208   2.682  49.192  0.00  0.00    +0.000 A 
ATOM      7  C   UNL     1      19.319   1.450  49.900  0.00  0.00    +0.000 A 
ATOM      8  C   UNL     1      18.184   0.891  50.668  0.00  0.00    +0.000 A 
ATOM      9  C   UNL     1      18.048  -0.421  51.350  0.00  0.00    +0.000 A 
ATOM     10  C   UNL     1      16.931  -0.798  52.126  0.00  0.00    +0.000 A 
ENDROOT
BRANCH  10  11
ATOM     11  N   UNL     1      16.556  -2.107  52.655  0.00  0.00    +0.000 N 
ATOM     12  C   UNL     1      17.256  -2.960  53.482  0.00  0.00    +0.000 C 
ATOM     13  O   UNL     1      18.392  -2.666  53.873  0.00  0.00    +0.000 OA
ATOM     14  H   UNL     1      15.668  -2.429  52.381  0.00  0.00    +0.000 HD
BRANCH  12  15
ATOM     15  C   UNL     1      16.630  -4.339  53.990  0.00  0.00    +0.000 C 
BRANCH  15  16
ATOM     16  C   UNL     1      15.184  -4.867  53.732  0.00  0.00    +0.000 C 
BRANCH  16  17
ATOM     17  N   UNL     1      14.044  -4.384  54.582  0.00  0.00    +0.000 N 
ATOM     18  C   UNL     1      13.720  -5.298  55.695  0.00  0.00    +0.000 C 
ATOM     19  C   UNL     1      12.780  -3.948  53.986  0.00  0.00    +0.000 C 
ATOM     20  H   UNL     1      14.484  -3.513  54.878  0.00  0.00    +0.000 HD
ENDBRANCH  16  17
ENDBRANCH  15  16
ENDBRANCH  12  15
ENDBRANCH  10  11
BRANCH   6  21
ATOM     21  C   UNL     1      20.283   3.379  48.481  0.00  0.00    +0.000 C 
ATOM     22  N   UNL     1      21.199   3.902  48.002  0.00  0.00    +0.000 NA
ENDBRANCH   6  21
BRANCH   7  23
ATOM     23  N   UNL     1      20.581   0.772  49.962  0.00  0.00    +0.000 N 
ATOM     24  H   UNL     1      20.782   0.167  49.213  0.00  0.00    +0.000 HD
BRANCH  23  25
ATOM     25  C   UNL     1      21.572   0.863  50.964  0.00  0.00    +0.000 A 
ATOM     26  C   UNL     1      22.658   1.730  50.853  0.00  0.00    +0.000 A 
ATOM     27  C   UNL     1      23.675   1.732  51.806  0.00  0.00    +0.000 A 
ATOM     28  C   UNL     1      23.634   0.858  52.896  0.00  0.00    +0.000 A 
ATOM     29  C   UNL     1      22.546  -0.017  53.013  0.00  0.00    +0.000 A 
ATOM     30 CL   UNL     1      22.448  -1.161  54.306  0.00  0.00    +0.000 Cl
ATOM     31  C   UNL     1      21.514   0.000  52.066  0.00  0.00    +0.000 A 
BRANCH  28  32
ATOM     32  O   UNL     1      24.624   0.793  53.847  0.00  0.00    +0.000 OA
BRANCH  32  33
ATOM     33  C   UNL     1      25.791   1.570  53.559  0.00  0.00    +0.000 C 
BRANCH  33  34
ATOM     34  C   UNL     1      27.071   0.776  53.624  0.00  0.00    +0.000 A 
ATOM     35  C   UNL     1      27.285  -0.334  52.811  0.00  0.00    +0.000 A 
ATOM     36  C   UNL     1      28.415  -1.116  53.030  0.00  0.00    +0.000 A 
ATOM     37  C   UNL     1      29.295  -0.776  54.051  0.00  0.00    +0.000 A 
ATOM     38  C   UNL     1      29.018   0.349  54.806  0.00  0.00    +0.000 A 
ATOM     39  N   UNL     1      27.931   1.126  54.618  0.00  0.00    +0.000 NA
ENDBRANCH  33  34
ENDBRANCH  32  33
ENDBRANCH  28  32
ENDBRANCH  23  25
ENDBRANCH   7  23
BRANCH   1  40
ATOM     40  O   UNL     1      15.076   0.040  53.382  0.00  0.00    +0.000 OA
BRANCH  40  42
ATOM     41  C   UNL     1      12.607  -0.155  53.625  0.00  0.00    +0.000 C 
ATOM     42  C   UNL     1      13.789   0.571  52.983  0.00  0.00    +0.000 C 
ENDBRANCH  40  42
ENDBRANCH   1  40
TORSDOF 12
ENDMDL
MODEL 9
REMARK VINA RESULT:    -7.963      2.179      7.493
REMARK INTER + INTRA:         -15.378
REMARK INTER:                 -13.544
REMARK INTRA:                  -1.834
REMARK UNBOUND:                -1.830
REMARK  Name = 
REMARK  15 active torsions:
REMARK  status: ('A' for Active; 'I' for Inactive)
REMARK    1  A    between atoms: C_1  and  C_2
REMARK    2  A    between atoms: C_2  and  O_3
REMARK    3  A    between atoms: O_3  and  C_4
REMARK    4  A    between atoms: C_9  and  C_10
REMARK    5  A    between atoms: C_12  and  N_13
REMARK    6  A    between atoms: N_13  and  C_14
REMARK    7  A    between atoms: C_17  and  O_18
REMARK    8  A    between atoms: O_18  and  C_19
REMARK    9  A    between atoms: C_19  and  C_20
REMARK   10  A    between atoms: C_31  and  N_32
REMARK   11  A    between atoms: C_33  and  C_35
REMARK   12  A    between atoms: C_35  and  C_36
REMARK   13  A    between atoms: C_36  and  N_37
REMARK   14  A    between atoms: N_37  and  C_38
REMARK   15  A    between atoms: N_37  and  C_39
REMARK                            x       y       z     vdW  Elec       q    Type
REMARK                         _______ _______ _______ _____ _____    ______ ____
ROOT
ATOM      1  C   UNL     1      27.165   5.291  48.815  0.00  0.00    +0.000 A 
ATOM      2  C   UNL     1      26.914   6.651  48.551  0.00  0.00    +0.000 A 
ATOM      3  C   UNL     1      25.623   7.182  48.459  0.00  0.00    +0.000 A 
ATOM      4  N   UNL     1      25.484   8.521  48.296  0.00  0.00    +0.000 NA
ATOM      5  C   UNL     1      24.262   9.052  48.051  0.00  0.00    +0.000 A 
ATOM      6  C   UNL     1      23.116   8.308  47.859  0.00  0.00    +0.000 A 
ATOM      7  C   UNL     1      23.235   6.911  48.116  0.00  0.00    +0.000 A 
ATOM      8  C   UNL     1      24.527   6.301  48.505  0.00  0.00    +0.000 A 
ATOM      9  C   UNL     1      24.833   4.916  48.944  0.00  0.00    +0.000 A 
ATOM     10  C   UNL     1      26.135   4.438  49.208  0.00  0.00    +0.000 A 
ENDROOT
BRANCH  10  11
ATOM     11  N   UNL     1      26.567   3.201  49.854  0.00  0.00    +0.000 N 
ATOM     12  C   UNL     1      26.271   2.709  51.107  0.00  0.00    +0.000 C 
ATOM     13  O   UNL     1      25.551   3.350  51.882  0.00  0.00    +0.000 OA
ATOM     14  H   UNL     1      27.159   2.632  49.312  0.00  0.00    +0.000 HD
BRANCH  12  15
ATOM     15  C   UNL     1      26.814   1.290  51.602  0.00  0.00    +0.000 C 
BRANCH  15  16
ATOM     16  C   UNL     1      27.186   0.882  53.062  0.00  0.00    +0.000 C 
BRANCH  16  17
ATOM     17  N   UNL     1      28.615   0.592  53.420  0.00  0.00    +0.000 N 
ATOM     18  C   UNL     1      28.903  -0.850  53.547  0.00  0.00    +0.000 C 
ATOM     19  C   UNL     1      29.275   1.273  54.535  0.00  0.00    +0.000 C 
ATOM     20  H   UNL     1      29.030   1.024  52.595  0.00  0.00    +0.000 HD
ENDBRANCH  16  17
ENDBRANCH  15  16
ENDBRANCH  12  15
ENDBRANCH  10  11
BRANCH   6  21
ATOM     21  C   UNL     1      21.921   9.006  47.377  0.00  0.00    +0.000 C 
ATOM     22  N   UNL     1      20.962   9.591  47.098  0.00  0.00    +0.000 NA
ENDBRANCH   6  21
BRANCH   7  23
ATOM     23  N   UNL     1      22.112   6.045  47.902  0.00  0.00    +0.000 N 
ATOM     24  H   UNL     1      21.606   6.196  47.072  0.00  0.00    +0.000 HD
BRANCH  23  25
ATOM     25  C   UNL     1      21.641   5.004  48.732  0.00  0.00    +0.000 A 
ATOM     26  C   UNL     1      21.163   5.244  50.019  0.00  0.00    +0.000 A 
ATOM     27  C   UNL     1      20.796   4.192  50.855  0.00  0.00    +0.000 A 
ATOM     28  C   UNL     1      20.903   2.867  50.425  0.00  0.00    +0.000 A 
ATOM     29  C   UNL     1      21.383   2.618  49.133  0.00  0.00    +0.000 A 
ATOM     30 CL   UNL     1      21.590   1.004  48.545  0.00  0.00    +0.000 Cl
ATOM     31  C   UNL     1      21.730   3.679  48.286  0.00  0.00    +0.000 A 
BRANCH  28  32
ATOM     32  O   UNL     1      20.587   1.789  51.217  0.00  0.00    +0.000 OA
BRANCH  32  33
ATOM     33  C   UNL     1      20.673   2.028  52.626  0.00  0.00    +0.000 C 
BRANCH  33  34
ATOM     34  C   UNL     1      21.529   1.022  53.354  0.00  0.00    +0.000 A 
ATOM     35  C   UNL     1      22.869   0.829  53.030  0.00  0.00    +0.000 A 
ATOM     36  C   UNL     1      23.558  -0.222  53.627  0.00  0.00    +0.000 A 
ATOM     37  C   UNL     1      22.896  -1.051  54.523  0.00  0.00    +0.000 A 
ATOM     38  C   UNL     1      21.567  -0.786  54.802  0.00  0.00    +0.000 A 
ATOM     39  N   UNL     1      20.873   0.223  54.239  0.00  0.00    +0.000 NA
ENDBRANCH  33  34
ENDBRANCH  32  33
ENDBRANCH  28  32
ENDBRANCH  23  25
ENDBRANCH   7  23
BRANCH   1  40
ATOM     40  O   UNL     1      28.457   4.806  48.767  0.00  0.00    +0.000 OA
BRANCH  40  42
ATOM     41  C   UNL     1      30.707   5.869  48.690  0.00  0.00    +0.000 C 
ATOM     42  C   UNL     1      29.338   5.690  48.033  0.00  0.00    +0.000 C 
ENDBRANCH  40  42
ENDBRANCH   1  40
TORSDOF 12
ENDMDL
