REMARK  Name = 
REMARK  3 active torsions:
REMARK  status: ('A' for Active; 'I' for Inactive)
REMARK    1  A    between atoms: C_6  and  O_7
REMARK    2  A    between atoms: O_7  and  C_8
REMARK    3  A    between atoms: C_8  and  C_9
REMARK                            x       y       z     vdW  Elec       q    Type
REMARK                         _______ _______ _______ _____ _____    ______ ____
ROOT
ATOM      1  C   UNL     1       4.944   1.599   1.320  0.00  0.00    +0.000 A 
ATOM      2  N   UNL     1       5.674   0.486   1.031  0.00  0.00    +0.000 NA
ATOM      3  C   UNL     1       6.502   0.045   1.983  0.00  0.00    +0.000 A 
ATOM      4  N   UNL     1       6.763   0.663   3.138  0.00  0.00    +0.000 NA
ATOM      5  C   UNL     1       6.023   1.732   3.426  0.00  0.00    +0.000 A 
ATOM      6  C   UNL     1       6.245   2.482   4.575  0.00  0.00    +0.000 A 
ATOM      7  N   UNL     1       5.511   3.544   4.997  0.00  0.00    +0.000 NA
ATOM      8  C   UNL     1       4.446   3.864   4.241  0.00  0.00    +0.000 A 
ATOM      9  C   UNL     1       4.147   3.236   3.046  0.00  0.00    +0.000 A 
ATOM     10  C   UNL     1       5.000   2.199   2.591  0.00  0.00    +0.000 A 
ENDROOT
BRANCH   1  11
ATOM     11  C   UNL     1       4.318   2.326   0.122  0.00  0.00    +0.000 C 
BRANCH  11  12
ATOM     12  O   UNL     1       2.896   2.459   0.169  0.00  0.00    +0.000 OA
BRANCH  12  18
ATOM     13 BR   UNL     1      -1.649   3.807  -2.012  0.00  0.00    +0.000 Br
ATOM     14  C   UNL     1       0.221   3.543  -2.074  0.00  0.00    +0.000 A 
ATOM     15  C   UNL     1       0.903   3.822  -3.258  0.00  0.00    +0.000 A 
ATOM     16  C   UNL     1       2.292   3.783  -3.261  0.00  0.00    +0.000 A 
ATOM     17  C   UNL     1       2.990   3.419  -2.103  0.00  0.00    +0.000 A 
ATOM     18  C   UNL     1       2.308   2.999  -0.956  0.00  0.00    +0.000 A 
ATOM     19  C   UNL     1       0.913   3.100  -0.939  0.00  0.00    +0.000 A 
ENDBRANCH  12  18
ENDBRANCH  11  12
ENDBRANCH   1  11
TORSDOF 3
