
     RDKit          3D

 69 73  0  0  0  0  0  0  0  0999 V2000
   10.7048   -0.0925    0.4216 C   0  0  0  0  0  0  0  0  0  0  0  0
    9.4536   -0.9632    0.3211 C   0  0  0  0  0  0  0  0  0  0  0  0
    8.2893   -0.1582   -0.1140 N   0  0  0  0  0  0  0  0  0  0  0  0
    7.3076   -1.0164   -0.8142 C   0  0  0  0  0  0  0  0  0  0  0  0
    6.1347   -0.1797   -1.3376 C   0  0  0  0  0  0  0  0  0  0  0  0
    5.5704    0.6133   -0.2425 N   0  0  0  0  0  0  0  0  0  0  0  0
    4.1450    0.7258   -0.0672 C   0  0  0  0  0  0  0  0  0  0  0  0
    3.3041    0.9175   -1.1759 C   0  0  0  0  0  0  0  0  0  0  0  0
    1.9166    0.9689   -1.0109 C   0  0  0  0  0  0  0  0  0  0  0  0
    1.3481    0.8177    0.2657 C   0  0  0  0  0  0  0  0  0  0  0  0
   -0.0747    0.8590    0.4570 N   0  0  0  0  0  0  0  0  0  0  0  0
   -1.0142    0.1883   -0.3951 C   0  0  0  0  0  0  0  0  0  0  0  0
   -0.5892   -0.6325   -1.3933 N   0  0  0  0  0  0  0  0  0  0  0  0
   -1.4752   -1.3081   -2.1686 C   0  0  0  0  0  0  0  0  0  0  0  0
   -2.8438   -1.1743   -1.9412 C   0  0  0  0  0  0  0  0  0  0  0  0
   -3.2742   -0.3274   -0.9115 C   0  0  0  0  0  0  0  0  0  0  0  0
   -4.7128   -0.1733   -0.6043 C   0  0  0  0  0  0  0  0  0  0  0  0
   -5.8826   -1.3543   -0.8926 S   0  0  0  0  0  0  0  0  0  0  0  0
   -7.1048   -0.4872   -0.1274 C   0  0  0  0  0  0  0  0  0  0  0  0
   -8.4654   -0.9060    0.0135 N   0  0  0  0  0  0  0  0  0  0  0  0
   -9.0555   -2.4128   -0.6080 S   0  0  0  0  0  0  0  0  0  0  0  0
  -10.5553   -2.4331   -0.4945 O   0  0  0  0  0  0  0  0  0  0  0  0
   -8.6758   -2.5441   -2.0570 O   0  0  0  0  0  0  0  0  0  0  0  0
   -8.3773   -3.7656    0.3406 C   0  0  0  0  0  0  0  0  0  0  0  0
   -8.8556   -5.1055   -0.2054 C   0  0  0  0  0  0  0  0  0  0  0  0
   -6.6550    0.6929    0.3466 N   0  0  0  0  0  0  0  0  0  0  0  0
   -5.3321    0.8835    0.0842 C   0  0  0  0  0  0  0  0  0  0  0  0
   -4.6715    2.1517    0.4535 C   0  0  0  0  0  0  0  0  0  0  0  0
   -3.9230    2.8731   -0.4936 C   0  0  0  0  0  0  0  0  0  0  0  0
   -3.3306    4.0911   -0.1455 C   0  0  0  0  0  0  0  0  0  0  0  0
   -3.4897    4.6043    1.1444 C   0  0  0  0  0  0  0  0  0  0  0  0
   -2.9189    5.7882    1.4788 F   0  0  0  0  0  0  0  0  0  0  0  0
   -4.2440    3.8994    2.0872 C   0  0  0  0  0  0  0  0  0  0  0  0
   -4.8409    2.6823    1.7413 C   0  0  0  0  0  0  0  0  0  0  0  0
   -2.3459    0.3219   -0.1579 N   0  0  0  0  0  0  0  0  0  0  0  0
    2.1885    0.6622    1.3769 C   0  0  0  0  0  0  0  0  0  0  0  0
    3.5754    0.6049    1.2116 C   0  0  0  0  0  0  0  0  0  0  0  0
    6.5016    1.4027    0.5701 C   0  0  0  0  0  0  0  0  0  0  0  0
    7.6471    0.5047    1.0435 C   0  0  0  0  0  0  0  0  0  0  0  0
   10.8815    0.4328   -0.5423 H   0  0  0  0  0  0  0  0  0  0  0  0
   10.6050    0.6574    1.2330 H   0  0  0  0  0  0  0  0  0  0  0  0
   11.5846   -0.7349    0.6446 H   0  0  0  0  0  0  0  0  0  0  0  0
    9.6826   -1.7631   -0.4189 H   0  0  0  0  0  0  0  0  0  0  0  0
    9.2635   -1.4656    1.2980 H   0  0  0  0  0  0  0  0  0  0  0  0
    7.7870   -1.5085   -1.6886 H   0  0  0  0  0  0  0  0  0  0  0  0
    6.9238   -1.8127   -0.1342 H   0  0  0  0  0  0  0  0  0  0  0  0
    5.3695   -0.8667   -1.7634 H   0  0  0  0  0  0  0  0  0  0  0  0
    6.4873    0.5027   -2.1431 H   0  0  0  0  0  0  0  0  0  0  0  0
    3.7242    1.0331   -2.1677 H   0  0  0  0  0  0  0  0  0  0  0  0
    1.2899    1.1409   -1.8767 H   0  0  0  0  0  0  0  0  0  0  0  0
   -0.4393    1.2740    1.3446 H   0  0  0  0  0  0  0  0  0  0  0  0
   -1.1151   -1.9554   -2.9562 H   0  0  0  0  0  0  0  0  0  0  0  0
   -3.5480   -1.7145   -2.5613 H   0  0  0  0  0  0  0  0  0  0  0  0
   -9.1369   -0.2799    0.5102 H   0  0  0  0  0  0  0  0  0  0  0  0
   -8.6944   -3.6597    1.3992 H   0  0  0  0  0  0  0  0  0  0  0  0
   -7.2699   -3.7262    0.2967 H   0  0  0  0  0  0  0  0  0  0  0  0
   -8.4311   -5.9289    0.4066 H   0  0  0  0  0  0  0  0  0  0  0  0
   -8.5199   -5.2340   -1.2567 H   0  0  0  0  0  0  0  0  0  0  0  0
   -9.9638   -5.1673   -0.1636 H   0  0  0  0  0  0  0  0  0  0  0  0
   -3.8061    2.4975   -1.5025 H   0  0  0  0  0  0  0  0  0  0  0  0
   -2.7557    4.6406   -0.8799 H   0  0  0  0  0  0  0  0  0  0  0  0
   -4.3739    4.2980    3.0850 H   0  0  0  0  0  0  0  0  0  0  0  0
   -5.4260    2.1488    2.4804 H   0  0  0  0  0  0  0  0  0  0  0  0
    1.7660    0.5578    2.3698 H   0  0  0  0  0  0  0  0  0  0  0  0
    4.2027    0.4379    2.0779 H   0  0  0  0  0  0  0  0  0  0  0  0
    5.9944    1.8522    1.4500 H   0  0  0  0  0  0  0  0  0  0  0  0
    6.9119    2.2327   -0.0467 H   0  0  0  0  0  0  0  0  0  0  0  0
    8.3808    1.1413    1.5841 H   0  0  0  0  0  0  0  0  0  0  0  0
    7.2468   -0.2494    1.7612 H   0  0  0  0  0  0  0  0  0  0  0  0
  1  2  1  0
  2  3  1  0
  3  4  1  0
  4  5  1  0
  5  6  1  0
  6  7  1  0
  7  8  2  0
  8  9  1  0
  9 10  2  0
 10 11  1  0
 11 12  1  0
 12 13  2  0
 13 14  1  0
 14 15  2  0
 15 16  1  0
 16 17  1  0
 17 18  1  0
 18 19  1  0
 19 20  1  0
 20 21  1  0
 21 22  2  0
 21 23  2  0
 21 24  1  0
 24 25  1  0
 19 26  2  0
 26 27  1  0
 27 28  1  0
 28 29  2  0
 29 30  1  0
 30 31  2  0
 31 32  1  0
 31 33  1  0
 33 34  2  0
 16 35  2  0
 10 36  1  0
 36 37  2  0
  6 38  1  0
 38 39  1  0
 39  3  1  0
 37  7  1  0
 35 12  1  0
 27 17  2  0
 34 28  1  0
  1 40  1  0
  1 41  1  0
  1 42  1  0
  2 43  1  0
  2 44  1  0
  4 45  1  0
  4 46  1  0
  5 47  1  0
  5 48  1  0
  8 49  1  0
  9 50  1  0
 11 51  1  0
 14 52  1  0
 15 53  1  0
 20 54  1  0
 24 55  1  0
 24 56  1  0
 25 57  1  0
 25 58  1  0
 25 59  1  0
 29 60  1  0
 30 61  1  0
 33 62  1  0
 34 63  1  0
 36 64  1  0
 37 65  1  0
 38 66  1  0
 38 67  1  0
 39 68  1  0
 39 69  1  0
M  END
