
     RDKit          3D

 56 58  0  0  0  0  0  0  0  0999 V2000
   10.3938    0.4784   -1.2001 C   0  0  0  0  0  0  0  0  0  0  0  0
    9.2611    0.9672   -0.6982 C   0  0  0  0  0  0  0  0  0  0  0  0
    8.0813    0.1229   -0.4328 C   0  0  0  0  0  0  0  0  0  0  0  0
    8.1264   -1.1185   -0.6549 O   0  0  0  0  0  0  0  0  0  0  0  0
    6.8967    0.7190    0.1194 N   0  0  0  0  0  0  0  0  0  0  0  0
    5.6275    0.0496    0.2190 C   0  0  0  0  0  0  0  0  0  0  0  0
    5.1958   -0.8552   -0.7667 C   0  0  0  0  0  0  0  0  0  0  0  0
    3.9522   -1.4807   -0.6518 C   0  0  0  0  0  0  0  0  0  0  0  0
    3.1186   -1.1951    0.4317 C   0  0  0  0  0  0  0  0  0  0  0  0
    3.5139   -0.2575    1.4015 C   0  0  0  0  0  0  0  0  0  0  0  0
    2.6777    0.0490    2.5311 N   0  0  0  0  0  0  0  0  0  0  0  0
    1.2407    0.0823    2.4736 C   0  0  0  0  0  0  0  0  0  0  0  0
    0.6123    0.2232    1.2740 N   0  0  0  0  0  0  0  0  0  0  0  0
   -0.7413    0.2877    1.1801 C   0  0  0  0  0  0  0  0  0  0  0  0
   -1.3565    0.4010   -0.1100 N   0  0  0  0  0  0  0  0  0  0  0  0
   -2.7700    0.5930   -0.2923 C   0  0  0  0  0  0  0  0  0  0  0  0
   -3.4248    1.6020    0.4199 C   0  0  0  0  0  0  0  0  0  0  0  0
   -4.7885    1.8144    0.2576 C   0  0  0  0  0  0  0  0  0  0  0  0
   -5.5415    1.0210   -0.6254 C   0  0  0  0  0  0  0  0  0  0  0  0
   -6.9201    1.2367   -0.7817 O   0  0  0  0  0  0  0  0  0  0  0  0
   -7.6770    2.2288   -0.0951 C   0  0  0  0  0  0  0  0  0  0  0  0
   -4.8925   -0.0053   -1.3629 C   0  0  0  0  0  0  0  0  0  0  0  0
   -5.5747   -0.8545   -2.2584 O   0  0  0  0  0  0  0  0  0  0  0  0
   -6.9678   -0.8509   -2.5500 C   0  0  0  0  0  0  0  0  0  0  0  0
   -3.4983   -0.2057   -1.2034 C   0  0  0  0  0  0  0  0  0  0  0  0
   -2.7941   -1.3212   -1.9564 C   0  0  0  0  0  0  0  0  0  0  0  0
   -2.2858   -2.2834   -1.0625 O   0  0  0  0  0  0  0  0  0  0  0  0
   -3.3417   -3.0398   -0.6636 N   0  0  0  0  0  0  0  0  0  0  0  0
   -1.4978    0.2069    2.3073 N   0  0  0  0  0  0  0  0  0  0  0  0
   -0.9216    0.0773    3.5290 C   0  0  0  0  0  0  0  0  0  0  0  0
    0.4678    0.0156    3.6460 C   0  0  0  0  0  0  0  0  0  0  0  0
    1.2459   -0.1979    5.3842 Br  0  0  0  0  0  0  0  0  0  0  0  0
    4.7743    0.3502    1.2922 C   0  0  0  0  0  0  0  0  0  0  0  0
   11.2332    1.1384   -1.3779 H   0  0  0  0  0  0  0  0  0  0  0  0
   10.5016   -0.5725   -1.4385 H   0  0  0  0  0  0  0  0  0  0  0  0
    9.2048    2.0266   -0.4798 H   0  0  0  0  0  0  0  0  0  0  0  0
    6.9844    1.6673    0.5507 H   0  0  0  0  0  0  0  0  0  0  0  0
    5.8077   -1.0661   -1.6334 H   0  0  0  0  0  0  0  0  0  0  0  0
    3.6330   -2.1890   -1.4056 H   0  0  0  0  0  0  0  0  0  0  0  0
    2.1746   -1.7167    0.5169 H   0  0  0  0  0  0  0  0  0  0  0  0
    3.1495    0.3644    3.4081 H   0  0  0  0  0  0  0  0  0  0  0  0
   -0.7485    0.2852   -0.9508 H   0  0  0  0  0  0  0  0  0  0  0  0
   -2.8706    2.2394    1.0973 H   0  0  0  0  0  0  0  0  0  0  0  0
   -5.2503    2.6076    0.8291 H   0  0  0  0  0  0  0  0  0  0  0  0
   -8.7366    2.1604   -0.4154 H   0  0  0  0  0  0  0  0  0  0  0  0
   -7.2955    3.2415   -0.3446 H   0  0  0  0  0  0  0  0  0  0  0  0
   -7.6268    2.0578    1.0011 H   0  0  0  0  0  0  0  0  0  0  0  0
   -7.1812   -1.6560   -3.2827 H   0  0  0  0  0  0  0  0  0  0  0  0
   -7.5547   -1.0564   -1.6302 H   0  0  0  0  0  0  0  0  0  0  0  0
   -7.2634    0.1170   -3.0064 H   0  0  0  0  0  0  0  0  0  0  0  0
   -1.9456   -0.8870   -2.5242 H   0  0  0  0  0  0  0  0  0  0  0  0
   -3.4325   -1.7985   -2.7338 H   0  0  0  0  0  0  0  0  0  0  0  0
   -3.4720   -2.8626    0.3584 H   0  0  0  0  0  0  0  0  0  0  0  0
   -3.0488   -4.0382   -0.7564 H   0  0  0  0  0  0  0  0  0  0  0  0
   -1.5469    0.0163    4.4096 H   0  0  0  0  0  0  0  0  0  0  0  0
    5.0927    1.0607    2.0454 H   0  0  0  0  0  0  0  0  0  0  0  0
  1  2  2  0
  2  3  1  0
  3  4  2  0
  3  5  1  0
  5  6  1  0
  6  7  2  0
  7  8  1  0
  8  9  2  0
  9 10  1  0
 10 11  1  0
 11 12  1  0
 12 13  2  0
 13 14  1  0
 14 15  1  0
 15 16  1  0
 16 17  2  0
 17 18  1  0
 18 19  2  0
 19 20  1  0
 20 21  1  0
 19 22  1  0
 22 23  1  0
 23 24  1  0
 22 25  2  0
 25 26  1  0
 26 27  1  0
 27 28  1  0
 14 29  2  0
 29 30  1  0
 30 31  2  0
 31 32  1  0
 10 33  2  0
 33  6  1  0
 31 12  1  0
 25 16  1  0
  1 34  1  0
  1 35  1  0
  2 36  1  0
  5 37  1  0
  7 38  1  0
  8 39  1  0
  9 40  1  0
 11 41  1  0
 15 42  1  0
 17 43  1  0
 18 44  1  0
 21 45  1  0
 21 46  1  0
 21 47  1  0
 24 48  1  0
 24 49  1  0
 24 50  1  0
 26 51  1  0
 26 52  1  0
 28 53  1  0
 28 54  1  0
 30 55  1  0
 33 56  1  0
M  END
