REMARK  Name = 
REMARK  13 active torsions:
REMARK  status: ('A' for Active; 'I' for Inactive)
REMARK    1  A    between atoms: C_2  and  C_3
REMARK    2  A    between atoms: N_5  and  C_6
REMARK    3  A    between atoms: C_8  and  N_9
REMARK    4  A    between atoms: C_16  and  C_17
REMARK    5  A    between atoms: C_29  and  O_30
REMARK    6  A    between atoms: O_30  and  C_31
REMARK    7  A    between atoms: C_33  and  N_34
REMARK    8  A    between atoms: N_34  and  C_35
REMARK    9  A    between atoms: N_34  and  C_36
REMARK   10  A    between atoms: C_36  and  C_37
REMARK   11  A    between atoms: C_37  and  N_38
REMARK   12  A    between atoms: N_38  and  C_39
REMARK   13  A    between atoms: N_38  and  C_40
REMARK                            x       y       z     vdW  Elec       q    Type
REMARK                         _______ _______ _______ _____ _____    ______ ____
ROOT
ATOM      1  C   UNL     1      -0.986   1.008   0.651  0.00  0.00    +0.000 A 
ATOM      2  C   UNL     1      -0.304   1.630  -0.421  0.00  0.00    +0.000 A 
ATOM      3  C   UNL     1       0.231   2.910  -0.276  0.00  0.00    +0.000 A 
ATOM      4  C   UNL     1       0.249   3.461   1.007  0.00  0.00    +0.000 A 
ATOM      5  C   UNL     1      -0.558   2.921   2.018  0.00  0.00    +0.000 A 
ATOM      6  C   UNL     1      -1.280   1.709   1.861  0.00  0.00    +0.000 A 
ENDROOT
BRANCH   3   7
ATOM      7  N   UNL     1       0.816   3.596  -1.371  0.00  0.00    +0.000 N 
ATOM      8  C   UNL     1       0.650   3.554  -2.706  0.00  0.00    +0.000 A 
ATOM      9  N   UNL     1       1.724   3.675  -3.498  0.00  0.00    +0.000 NA
ATOM     10  N   UNL     1       1.232   4.078  -4.670  0.00  0.00    +0.000 N 
ATOM     11  C   UNL     1      -0.109   4.323  -4.656  0.00  0.00    +0.000 A 
ATOM     12  C   UNL     1      -0.928   4.950  -5.589  0.00  0.00    +0.000 A 
ATOM     13  C   UNL     1      -2.295   5.005  -5.309  0.00  0.00    +0.000 A 
ATOM     14  C   UNL     1      -2.864   4.397  -4.175  0.00  0.00    +0.000 A 
ATOM     15  C   UNL     1      -1.966   3.844  -3.212  0.00  0.00    +0.000 A 
ATOM     16  C   UNL     1      -0.564   3.834  -3.437  0.00  0.00    +0.000 A 
ATOM     17  H   UNL     1       1.497   4.250  -1.092  0.00  0.00    +0.000 HD
ATOM     18  H   UNL     1       1.789   4.190  -5.475  0.00  0.00    +0.000 HD
BRANCH  14  19
ATOM     19  C   UNL     1      -4.351   4.279  -4.048  0.00  0.00    +0.000 A 
ATOM     20  C   UNL     1      -4.963   3.975  -2.824  0.00  0.00    +0.000 A 
ATOM     21  C   UNL     1      -6.298   3.566  -2.759  0.00  0.00    +0.000 A 
ATOM     22  C   UNL     1      -7.073   3.486  -3.919  0.00  0.00    +0.000 A 
ATOM     23  C   UNL     1      -8.292   2.800  -3.938  0.00  0.00    +0.000 A 
ATOM     24  C   UNL     1      -9.022   2.700  -5.121  0.00  0.00    +0.000 A 
ATOM     25  C   UNL     1      -8.672   3.483  -6.215  0.00  0.00    +0.000 A 
ATOM     26  C   UNL     1      -7.436   4.125  -6.225  0.00  0.00    +0.000 A 
ATOM     27  C   UNL     1      -6.576   4.024  -5.115  0.00  0.00    +0.000 A 
ATOM     28  C   UNL     1      -5.210   4.368  -5.173  0.00  0.00    +0.000 A 
ENDBRANCH  14  19
ENDBRANCH   3   7
BRANCH   1  31
ATOM     29  C   UNL     1      -0.536  -1.371   0.033  0.00  0.00    +0.000 C 
ATOM     30  O   UNL     1      -1.044  -2.424  -0.352  0.00  0.00    +0.000 OA
ATOM     31  N   UNL     1      -1.325  -0.357   0.491  0.00  0.00    +0.000 N 
ATOM     32  H   UNL     1      -2.245  -0.605   0.741  0.00  0.00    +0.000 HD
BRANCH  29  34
ATOM     33  C   UNL     1       1.756  -2.007  -0.579  0.00  0.00    +0.000 C 
ATOM     34  C   UNL     1       0.940  -1.198   0.108  0.00  0.00    +0.000 C 
ENDBRANCH  29  34
ENDBRANCH   1  31
BRANCH   4  35
ATOM     35  O   UNL     1       0.891   4.647   1.323  0.00  0.00    +0.000 OA
ATOM     36  C   UNL     1       2.297   4.723   1.041  0.00  0.00    +0.000 C 
ENDBRANCH   4  35
BRANCH   6  37
ATOM     37  N   UNL     1      -2.179   1.283   2.839  0.00  0.00    +0.000 N 
ATOM     38  C   UNL     1      -3.359   0.483   2.510  0.00  0.00    +0.000 C 
BRANCH  37  39
ATOM     39  C   UNL     1      -1.959   1.509   4.293  0.00  0.00    +0.000 C 
BRANCH  39  40
ATOM     40  C   UNL     1      -3.078   2.370   4.951  0.00  0.00    +0.000 C 
BRANCH  40  41
ATOM     41  N   UNL     1      -3.041   2.619   6.402  0.00  0.00    +0.000 N 
ATOM     42  C   UNL     1      -3.056   1.416   7.224  0.00  0.00    +0.000 C 
ATOM     43  C   UNL     1      -1.958   3.513   6.805  0.00  0.00    +0.000 C 
ATOM     44  H   UNL     1      -3.924   3.097   6.582  0.00  0.00    +0.000 HD
ENDBRANCH  40  41
ENDBRANCH  39  40
ENDBRANCH  37  39
ENDBRANCH   6  37
TORSDOF 9
