MODEL 1
REMARK VINA RESULT:    -8.656      0.000      0.000
REMARK INTER + INTRA:         -13.752
REMARK INTER:                 -12.198
REMARK INTRA:                  -1.555
REMARK UNBOUND:                -1.555
REMARK  Name = 
REMARK  7 active torsions:
REMARK  status: ('A' for Active; 'I' for Inactive)
REMARK    1  A    between atoms: C_2  and  C_3
REMARK    2  A    between atoms: N_5  and  C_6
REMARK    3  A    between atoms: C_9  and  N_10
REMARK    4  A    between atoms: N_10  and  C_11
REMARK    5  A    between atoms: C_24  and  O_25
REMARK    6  A    between atoms: O_25  and  C_26
REMARK    7  A    between atoms: C_26  and  C_27
REMARK                            x       y       z     vdW  Elec       q    Type
REMARK                         _______ _______ _______ _____ _____    ______ ____
ROOT
ATOM      1  C   UNL     1      25.145   1.903  53.637  0.00  0.00    +0.000 A 
ATOM      2  C   UNL     1      24.474   3.092  53.326  0.00  0.00    +0.000 A 
ATOM      3  C   UNL     1      23.415   3.056  52.413  0.00  0.00    +0.000 A 
ATOM      4  C   UNL     1      22.893   4.217  51.806  0.00  0.00    +0.000 A 
ATOM      5  N   UNL     1      21.911   4.143  50.899  0.00  0.00    +0.000 NA
ATOM      6  C   UNL     1      21.485   2.914  50.583  0.00  0.00    +0.000 A 
ATOM      7  N   UNL     1      21.932   1.748  51.085  0.00  0.00    +0.000 NA
ATOM      8  C   UNL     1      22.910   1.807  51.997  0.00  0.00    +0.000 A 
ATOM      9  C   UNL     1      23.480   0.615  52.510  0.00  0.00    +0.000 A 
ATOM     10  C   UNL     1      24.600   0.645  53.338  0.00  0.00    +0.000 A 
ENDROOT
BRANCH   1  13
ATOM     11  C   UNL     1      27.247   2.304  52.555  0.00  0.00    +0.000 C 
ATOM     12  O   UNL     1      28.254   3.002  52.562  0.00  0.00    +0.000 OA
ATOM     13  N   UNL     1      26.555   2.015  53.730  0.00  0.00    +0.000 N 
ATOM     14  H   UNL     1      27.024   1.894  54.587  0.00  0.00    +0.000 HD
BRANCH  11  16
ATOM     15  C   UNL     1      26.392   2.599  50.249  0.00  0.00    +0.000 C 
ATOM     16  C   UNL     1      26.649   1.789  51.286  0.00  0.00    +0.000 C 
ENDBRANCH  11  16
ENDBRANCH   1  13
BRANCH   4  17
ATOM     17  N   UNL     1      23.494   5.487  52.062  0.00  0.00    +0.000 N 
ATOM     18  H   UNL     1      23.561   5.759  53.006  0.00  0.00    +0.000 HD
BRANCH  17  19
ATOM     19  C   UNL     1      24.004   6.396  51.101  0.00  0.00    +0.000 A 
ATOM     20  C   UNL     1      25.241   6.178  50.484  0.00  0.00    +0.000 A 
ATOM     21  C   UNL     1      25.694   7.013  49.457  0.00  0.00    +0.000 A 
ATOM     22  C   UNL     1      24.904   8.079  49.026  0.00  0.00    +0.000 A 
ATOM     23 BR   UNL     1      25.519   9.187  47.623  0.00  0.00    +0.000 Br
ATOM     24  C   UNL     1      23.667   8.314  49.615  0.00  0.00    +0.000 A 
ATOM     25  C   UNL     1      23.226   7.469  50.631  0.00  0.00    +0.000 A 
ATOM     26  F   UNL     1      22.021   7.698  51.178  0.00  0.00    +0.000 F 
ENDBRANCH  17  19
ENDBRANCH   4  17
BRANCH  10  27
ATOM     27  O   UNL     1      25.276  -0.392  53.915  0.00  0.00    +0.000 OA
BRANCH  27  28
ATOM     28  C   UNL     1      26.001  -1.384  53.191  0.00  0.00    +0.000 C 
BRANCH  28  29
ATOM     29  C   UNL     1      27.460  -1.215  53.415  0.00  0.00    +0.000 A 
ATOM     30  C   UNL     1      28.591  -1.776  52.847  0.00  0.00    +0.000 A 
ATOM     31  C   UNL     1      29.701  -1.231  53.543  0.00  0.00    +0.000 A 
ATOM     32  C   UNL     1      29.177  -0.402  54.506  0.00  0.00    +0.000 A 
ATOM     33  O   UNL     1      27.821  -0.390  54.440  0.00  0.00    +0.000 OA
ENDBRANCH  28  29
ENDBRANCH  27  28
ENDBRANCH  10  27
TORSDOF 7
ENDMDL
MODEL 2
REMARK VINA RESULT:    -8.546      4.168      7.404
REMARK INTER + INTRA:         -13.598
REMARK INTER:                 -12.411
REMARK INTRA:                  -1.187
REMARK UNBOUND:                -1.555
REMARK  Name = 
REMARK  7 active torsions:
REMARK  status: ('A' for Active; 'I' for Inactive)
REMARK    1  A    between atoms: C_2  and  C_3
REMARK    2  A    between atoms: N_5  and  C_6
REMARK    3  A    between atoms: C_9  and  N_10
REMARK    4  A    between atoms: N_10  and  C_11
REMARK    5  A    between atoms: C_24  and  O_25
REMARK    6  A    between atoms: O_25  and  C_26
REMARK    7  A    between atoms: C_26  and  C_27
REMARK                            x       y       z     vdW  Elec       q    Type
REMARK                         _______ _______ _______ _____ _____    ______ ____
ROOT
ATOM      1  C   UNL     1      24.546   3.466  52.157  0.00  0.00    +0.000 A 
ATOM      2  C   UNL     1      24.434   2.451  53.116  0.00  0.00    +0.000 A 
ATOM      3  C   UNL     1      25.139   1.258  52.929  0.00  0.00    +0.000 A 
ATOM      4  C   UNL     1      24.853   0.083  53.653  0.00  0.00    +0.000 A 
ATOM      5  N   UNL     1      25.515  -1.057  53.415  0.00  0.00    +0.000 NA
ATOM      6  C   UNL     1      26.428  -1.020  52.436  0.00  0.00    +0.000 A 
ATOM      7  N   UNL     1      26.756   0.039  51.675  0.00  0.00    +0.000 NA
ATOM      8  C   UNL     1      26.107   1.187  51.905  0.00  0.00    +0.000 A 
ATOM      9  C   UNL     1      26.348   2.319  51.088  0.00  0.00    +0.000 A 
ATOM     10  C   UNL     1      25.576   3.474  51.204  0.00  0.00    +0.000 A 
ENDROOT
BRANCH   1  13
ATOM     11  C   UNL     1      22.360   3.377  51.175  0.00  0.00    +0.000 C 
ATOM     12  O   UNL     1      21.166   3.555  51.383  0.00  0.00    +0.000 OA
ATOM     13  N   UNL     1      23.334   4.126  51.834  0.00  0.00    +0.000 N 
ATOM     14  H   UNL     1      23.186   5.071  52.067  0.00  0.00    +0.000 HD
BRANCH  11  16
ATOM     15  C   UNL     1      22.038   1.334  49.812  0.00  0.00    +0.000 C 
ATOM     16  C   UNL     1      22.853   2.294  50.269  0.00  0.00    +0.000 C 
ENDBRANCH  11  16
ENDBRANCH   1  13
BRANCH   4  17
ATOM     17  N   UNL     1      23.761   0.060  54.573  0.00  0.00    +0.000 N 
ATOM     18  H   UNL     1      23.975   0.246  55.515  0.00  0.00    +0.000 HD
BRANCH  17  19
ATOM     19  C   UNL     1      22.400  -0.200  54.271  0.00  0.00    +0.000 A 
ATOM     20  C   UNL     1      21.644   0.694  53.507  0.00  0.00    +0.000 A 
ATOM     21  C   UNL     1      20.337   0.387  53.115  0.00  0.00    +0.000 A 
ATOM     22  C   UNL     1      19.769  -0.835  53.479  0.00  0.00    +0.000 A 
ATOM     23 BR   UNL     1      18.010  -1.248  52.926  0.00  0.00    +0.000 Br
ATOM     24  C   UNL     1      20.501  -1.748  54.231  0.00  0.00    +0.000 A 
ATOM     25  C   UNL     1      21.804  -1.430  54.606  0.00  0.00    +0.000 A 
ATOM     26  F   UNL     1      22.505  -2.329  55.317  0.00  0.00    +0.000 F 
ENDBRANCH  17  19
ENDBRANCH   4  17
BRANCH  10  27
ATOM     27  O   UNL     1      25.664   4.645  50.508  0.00  0.00    +0.000 OA
BRANCH  27  28
ATOM     28  C   UNL     1      25.766   4.733  49.088  0.00  0.00    +0.000 C 
BRANCH  28  29
ATOM     29  C   UNL     1      27.024   5.426  48.709  0.00  0.00    +0.000 A 
ATOM     30  C   UNL     1      27.329   6.718  48.314  0.00  0.00    +0.000 A 
ATOM     31  C   UNL     1      28.720   6.735  48.039  0.00  0.00    +0.000 A 
ATOM     32  C   UNL     1      29.166   5.452  48.251  0.00  0.00    +0.000 A 
ATOM     33  O   UNL     1      28.146   4.651  48.651  0.00  0.00    +0.000 OA
ENDBRANCH  28  29
ENDBRANCH  27  28
ENDBRANCH  10  27
TORSDOF 7
ENDMDL
MODEL 3
REMARK VINA RESULT:    -8.329      3.089      4.271
REMARK INTER + INTRA:         -13.292
REMARK INTER:                 -12.110
REMARK INTRA:                  -1.181
REMARK UNBOUND:                -1.555
REMARK  Name = 
REMARK  7 active torsions:
REMARK  status: ('A' for Active; 'I' for Inactive)
REMARK    1  A    between atoms: C_2  and  C_3
REMARK    2  A    between atoms: N_5  and  C_6
REMARK    3  A    between atoms: C_9  and  N_10
REMARK    4  A    between atoms: N_10  and  C_11
REMARK    5  A    between atoms: C_24  and  O_25
REMARK    6  A    between atoms: O_25  and  C_26
REMARK    7  A    between atoms: C_26  and  C_27
REMARK                            x       y       z     vdW  Elec       q    Type
REMARK                         _______ _______ _______ _____ _____    ______ ____
ROOT
ATOM      1  C   UNL     1      23.958   1.591  52.009  0.00  0.00    +0.000 A 
ATOM      2  C   UNL     1      23.696   2.428  50.916  0.00  0.00    +0.000 A 
ATOM      3  C   UNL     1      24.760   3.101  50.306  0.00  0.00    +0.000 A 
ATOM      4  C   UNL     1      24.570   4.185  49.425  0.00  0.00    +0.000 A 
ATOM      5  N   UNL     1      25.612   4.839  48.895  0.00  0.00    +0.000 NA
ATOM      6  C   UNL     1      26.827   4.428  49.277  0.00  0.00    +0.000 A 
ATOM      7  N   UNL     1      27.112   3.424  50.126  0.00  0.00    +0.000 NA
ATOM      8  C   UNL     1      26.082   2.757  50.659  0.00  0.00    +0.000 A 
ATOM      9  C   UNL     1      26.309   1.741  51.620  0.00  0.00    +0.000 A 
ATOM     10  C   UNL     1      25.253   1.142  52.305  0.00  0.00    +0.000 A 
ENDROOT
BRANCH   1  13
ATOM     11  C   UNL     1      22.096   0.645  53.188  0.00  0.00    +0.000 C 
ATOM     12  O   UNL     1      21.701   0.262  54.283  0.00  0.00    +0.000 OA
ATOM     13  N   UNL     1      23.024   1.680  53.071  0.00  0.00    +0.000 N 
ATOM     14  H   UNL     1      23.031   2.438  53.699  0.00  0.00    +0.000 HD
BRANCH  11  16
ATOM     15  C   UNL     1      20.574   0.352  51.257  0.00  0.00    +0.000 C 
ATOM     16  C   UNL     1      21.678  -0.021  51.917  0.00  0.00    +0.000 C 
ENDBRANCH  11  16
ENDBRANCH   1  13
BRANCH   4  17
ATOM     17  N   UNL     1      23.254   4.682  49.180  0.00  0.00    +0.000 N 
ATOM     18  H   UNL     1      22.751   5.000  49.964  0.00  0.00    +0.000 HD
BRANCH  17  19
ATOM     19  C   UNL     1      22.595   4.765  47.927  0.00  0.00    +0.000 A 
ATOM     20  C   UNL     1      22.415   5.994  47.284  0.00  0.00    +0.000 A 
ATOM     21  C   UNL     1      21.866   6.066  45.999  0.00  0.00    +0.000 A 
ATOM     22  C   UNL     1      21.495   4.897  45.334  0.00  0.00    +0.000 A 
ATOM     23 BR   UNL     1      20.774   5.006  43.590  0.00  0.00    +0.000 Br
ATOM     24  C   UNL     1      21.671   3.660  45.945  0.00  0.00    +0.000 A 
ATOM     25  C   UNL     1      22.226   3.605  47.221  0.00  0.00    +0.000 A 
ATOM     26  F   UNL     1      22.406   2.402  47.791  0.00  0.00    +0.000 F 
ENDBRANCH  17  19
ENDBRANCH   4  17
BRANCH  10  27
ATOM     27  O   UNL     1      25.286   0.160  53.253  0.00  0.00    +0.000 OA
BRANCH  27  28
ATOM     28  C   UNL     1      26.016  -1.058  53.127  0.00  0.00    +0.000 C 
BRANCH  28  29
ATOM     29  C   UNL     1      27.443  -0.836  53.475  0.00  0.00    +0.000 A 
ATOM     30  C   UNL     1      28.634  -1.414  53.069  0.00  0.00    +0.000 A 
ATOM     31  C   UNL     1      29.661  -0.788  53.820  0.00  0.00    +0.000 A 
ATOM     32  C   UNL     1      29.031   0.105  54.654  0.00  0.00    +0.000 A 
ATOM     33  O   UNL     1      27.688   0.079  54.458  0.00  0.00    +0.000 OA
ENDBRANCH  28  29
ENDBRANCH  27  28
ENDBRANCH  10  27
TORSDOF 7
ENDMDL
MODEL 4
REMARK VINA RESULT:    -8.320      1.731      2.139
REMARK INTER + INTRA:         -13.279
REMARK INTER:                 -11.850
REMARK INTRA:                  -1.429
REMARK UNBOUND:                -1.555
REMARK  Name = 
REMARK  7 active torsions:
REMARK  status: ('A' for Active; 'I' for Inactive)
REMARK    1  A    between atoms: C_2  and  C_3
REMARK    2  A    between atoms: N_5  and  C_6
REMARK    3  A    between atoms: C_9  and  N_10
REMARK    4  A    between atoms: N_10  and  C_11
REMARK    5  A    between atoms: C_24  and  O_25
REMARK    6  A    between atoms: O_25  and  C_26
REMARK    7  A    between atoms: C_26  and  C_27
REMARK                            x       y       z     vdW  Elec       q    Type
REMARK                         _______ _______ _______ _____ _____    ______ ____
ROOT
ATOM      1  C   UNL     1      24.903   2.594  52.179  0.00  0.00    +0.000 A 
ATOM      2  C   UNL     1      23.957   3.582  52.478  0.00  0.00    +0.000 A 
ATOM      3  C   UNL     1      22.597   3.273  52.376  0.00  0.00    +0.000 A 
ATOM      4  C   UNL     1      21.591   4.261  52.347  0.00  0.00    +0.000 A 
ATOM      5  N   UNL     1      20.300   3.932  52.200  0.00  0.00    +0.000 NA
ATOM      6  C   UNL     1      20.032   2.630  52.049  0.00  0.00    +0.000 A 
ATOM      7  N   UNL     1      20.918   1.617  52.040  0.00  0.00    +0.000 NA
ATOM      8  C   UNL     1      22.211   1.928  52.191  0.00  0.00    +0.000 A 
ATOM      9  C   UNL     1      23.202   0.919  52.112  0.00  0.00    +0.000 A 
ATOM     10  C   UNL     1      24.560   1.235  52.109  0.00  0.00    +0.000 A 
ENDROOT
BRANCH   1  13
ATOM     11  C   UNL     1      25.759   3.676  50.217  0.00  0.00    +0.000 C 
ATOM     12  O   UNL     1      26.462   4.593  49.812  0.00  0.00    +0.000 OA
ATOM     13  N   UNL     1      26.021   3.039  51.429  0.00  0.00    +0.000 N 
ATOM     14  H   UNL     1      26.941   2.904  51.751  0.00  0.00    +0.000 HD
BRANCH  11  16
ATOM     15  C   UNL     1      23.744   4.110  48.842  0.00  0.00    +0.000 C 
ATOM     16  C   UNL     1      24.531   3.237  49.486  0.00  0.00    +0.000 C 
ENDBRANCH  11  16
ENDBRANCH   1  13
BRANCH   4  17
ATOM     17  N   UNL     1      21.949   5.643  52.350  0.00  0.00    +0.000 N 
ATOM     18  H   UNL     1      22.045   6.070  53.232  0.00  0.00    +0.000 HD
BRANCH  17  19
ATOM     19  C   UNL     1      22.182   6.464  51.218  0.00  0.00    +0.000 A 
ATOM     20  C   UNL     1      21.132   6.860  50.383  0.00  0.00    +0.000 A 
ATOM     21  C   UNL     1      21.343   7.759  49.332  0.00  0.00    +0.000 A 
ATOM     22  C   UNL     1      22.616   8.284  49.108  0.00  0.00    +0.000 A 
ATOM     23 BR   UNL     1      22.883   9.514  47.698  0.00  0.00    +0.000 Br
ATOM     24  C   UNL     1      23.677   7.915  49.928  0.00  0.00    +0.000 A 
ATOM     25  C   UNL     1      23.450   7.025  50.976  0.00  0.00    +0.000 A 
ATOM     26  F   UNL     1      24.480   6.691  51.770  0.00  0.00    +0.000 F 
ENDBRANCH  17  19
ENDBRANCH   4  17
BRANCH  10  27
ATOM     27  O   UNL     1      25.640   0.404  52.038  0.00  0.00    +0.000 OA
BRANCH  27  28
ATOM     28  C   UNL     1      25.940  -0.610  52.995  0.00  0.00    +0.000 C 
BRANCH  28  29
ATOM     29  C   UNL     1      27.345  -0.476  53.458  0.00  0.00    +0.000 A 
ATOM     30  C   UNL     1      28.519  -1.157  53.180  0.00  0.00    +0.000 A 
ATOM     31  C   UNL     1      29.523  -0.572  53.993  0.00  0.00    +0.000 A 
ATOM     32  C   UNL     1      28.895   0.401  54.733  0.00  0.00    +0.000 A 
ATOM     33  O   UNL     1      27.575   0.463  54.421  0.00  0.00    +0.000 OA
ENDBRANCH  28  29
ENDBRANCH  27  28
ENDBRANCH  10  27
TORSDOF 7
ENDMDL
MODEL 5
REMARK VINA RESULT:    -8.309      3.886      7.468
REMARK INTER + INTRA:         -13.264
REMARK INTER:                 -11.565
REMARK INTRA:                  -1.699
REMARK UNBOUND:                -1.555
REMARK  Name = 
REMARK  7 active torsions:
REMARK  status: ('A' for Active; 'I' for Inactive)
REMARK    1  A    between atoms: C_2  and  C_3
REMARK    2  A    between atoms: N_5  and  C_6
REMARK    3  A    between atoms: C_9  and  N_10
REMARK    4  A    between atoms: N_10  and  C_11
REMARK    5  A    between atoms: C_24  and  O_25
REMARK    6  A    between atoms: O_25  and  C_26
REMARK    7  A    between atoms: C_26  and  C_27
REMARK                            x       y       z     vdW  Elec       q    Type
REMARK                         _______ _______ _______ _____ _____    ______ ____
ROOT
ATOM      1  C   UNL     1      24.142   3.776  49.973  0.00  0.00    +0.000 A 
ATOM      2  C   UNL     1      24.283   2.776  50.943  0.00  0.00    +0.000 A 
ATOM      3  C   UNL     1      23.270   1.822  51.086  0.00  0.00    +0.000 A 
ATOM      4  C   UNL     1      23.167   0.983  52.215  0.00  0.00    +0.000 A 
ATOM      5  N   UNL     1      22.156   0.114  52.343  0.00  0.00    +0.000 NA
ATOM      6  C   UNL     1      21.244   0.114  51.364  0.00  0.00    +0.000 A 
ATOM      7  N   UNL     1      21.240   0.887  50.262  0.00  0.00    +0.000 NA
ATOM      8  C   UNL     1      22.246   1.757  50.117  0.00  0.00    +0.000 A 
ATOM      9  C   UNL     1      22.261   2.655  49.021  0.00  0.00    +0.000 A 
ATOM     10  C   UNL     1      23.209   3.673  48.930  0.00  0.00    +0.000 A 
ENDROOT
BRANCH   1  13
ATOM     11  C   UNL     1      25.657   5.622  49.755  0.00  0.00    +0.000 C 
ATOM     12  O   UNL     1      25.738   6.824  49.531  0.00  0.00    +0.000 OA
ATOM     13  N   UNL     1      24.541   5.073  50.384  0.00  0.00    +0.000 N 
ATOM     14  H   UNL     1      24.051   5.563  51.082  0.00  0.00    +0.000 HD
BRANCH  11  16
ATOM     15  C   UNL     1      27.759   5.058  48.572  0.00  0.00    +0.000 C 
ATOM     16  C   UNL     1      26.705   4.659  49.296  0.00  0.00    +0.000 C 
ENDBRANCH  11  16
ENDBRANCH   1  13
BRANCH   4  17
ATOM     17  N   UNL     1      24.079   1.139  53.303  0.00  0.00    +0.000 N 
ATOM     18  H   UNL     1      23.778   1.703  54.052  0.00  0.00    +0.000 HD
BRANCH  17  19
ATOM     19  C   UNL     1      25.371   0.567  53.419  0.00  0.00    +0.000 A 
ATOM     20  C   UNL     1      25.619  -0.748  53.012  0.00  0.00    +0.000 A 
ATOM     21  C   UNL     1      26.915  -1.276  53.022  0.00  0.00    +0.000 A 
ATOM     22  C   UNL     1      27.987  -0.485  53.435  0.00  0.00    +0.000 A 
ATOM     23 BR   UNL     1      29.735  -1.204  53.424  0.00  0.00    +0.000 Br
ATOM     24  C   UNL     1      27.771   0.828  53.837  0.00  0.00    +0.000 A 
ATOM     25  C   UNL     1      26.476   1.343  53.813  0.00  0.00    +0.000 A 
ATOM     26  F   UNL     1      26.286   2.619  54.187  0.00  0.00    +0.000 F 
ENDBRANCH  17  19
ENDBRANCH   4  17
BRANCH  10  27
ATOM     27  O   UNL     1      23.371   4.618  47.959  0.00  0.00    +0.000 OA
BRANCH  27  28
ATOM     28  C   UNL     1      22.342   5.498  47.511  0.00  0.00    +0.000 C 
BRANCH  28  29
ATOM     29  C   UNL     1      22.469   6.817  48.183  0.00  0.00    +0.000 A 
ATOM     30  C   UNL     1      22.867   8.075  47.765  0.00  0.00    +0.000 A 
ATOM     31  C   UNL     1      22.818   8.911  48.909  0.00  0.00    +0.000 A 
ATOM     32  C   UNL     1      22.426   8.107  49.953  0.00  0.00    +0.000 A 
ATOM     33  O   UNL     1      22.218   6.836  49.524  0.00  0.00    +0.000 OA
ENDBRANCH  28  29
ENDBRANCH  27  28
ENDBRANCH  10  27
TORSDOF 7
ENDMDL
MODEL 6
REMARK VINA RESULT:    -8.184      2.688      4.124
REMARK INTER + INTRA:         -13.088
REMARK INTER:                 -12.313
REMARK INTRA:                  -0.775
REMARK UNBOUND:                -1.555
REMARK  Name = 
REMARK  7 active torsions:
REMARK  status: ('A' for Active; 'I' for Inactive)
REMARK    1  A    between atoms: C_2  and  C_3
REMARK    2  A    between atoms: N_5  and  C_6
REMARK    3  A    between atoms: C_9  and  N_10
REMARK    4  A    between atoms: N_10  and  C_11
REMARK    5  A    between atoms: C_24  and  O_25
REMARK    6  A    between atoms: O_25  and  C_26
REMARK    7  A    between atoms: C_26  and  C_27
REMARK                            x       y       z     vdW  Elec       q    Type
REMARK                         _______ _______ _______ _____ _____    ______ ____
ROOT
ATOM      1  C   UNL     1      23.741   0.903  53.040  0.00  0.00    +0.000 A 
ATOM      2  C   UNL     1      22.389   1.258  52.954  0.00  0.00    +0.000 A 
ATOM      3  C   UNL     1      21.415   0.312  53.292  0.00  0.00    +0.000 A 
ATOM      4  C   UNL     1      20.056   0.461  52.946  0.00  0.00    +0.000 A 
ATOM      5  N   UNL     1      19.158  -0.487  53.242  0.00  0.00    +0.000 NA
ATOM      6  C   UNL     1      19.629  -1.584  53.848  0.00  0.00    +0.000 A 
ATOM      7  N   UNL     1      20.904  -1.830  54.198  0.00  0.00    +0.000 NA
ATOM      8  C   UNL     1      21.813  -0.890  53.914  0.00  0.00    +0.000 A 
ATOM      9  C   UNL     1      23.185  -1.119  54.185  0.00  0.00    +0.000 A 
ATOM     10  C   UNL     1      24.167  -0.226  53.756  0.00  0.00    +0.000 A 
ENDROOT
BRANCH   1  13
ATOM     11  C   UNL     1      25.079   2.645  52.078  0.00  0.00    +0.000 C 
ATOM     12  O   UNL     1      26.187   2.921  51.635  0.00  0.00    +0.000 OA
ATOM     13  N   UNL     1      24.551   1.359  51.971  0.00  0.00    +0.000 N 
ATOM     14  H   UNL     1      24.735   0.791  51.188  0.00  0.00    +0.000 HD
BRANCH  11  16
ATOM     15  C   UNL     1      23.640   4.657  52.215  0.00  0.00    +0.000 C 
ATOM     16  C   UNL     1      24.257   3.640  52.833  0.00  0.00    +0.000 C 
ENDBRANCH  11  16
ENDBRANCH   1  13
BRANCH   4  17
ATOM     17  N   UNL     1      19.640   1.577  52.159  0.00  0.00    +0.000 N 
ATOM     18  H   UNL     1      18.872   2.091  52.497  0.00  0.00    +0.000 HD
BRANCH  17  19
ATOM     19  C   UNL     1      20.216   2.022  50.942  0.00  0.00    +0.000 A 
ATOM     20  C   UNL     1      20.405   1.147  49.868  0.00  0.00    +0.000 A 
ATOM     21  C   UNL     1      20.869   1.609  48.631  0.00  0.00    +0.000 A 
ATOM     22  C   UNL     1      21.144   2.965  48.452  0.00  0.00    +0.000 A 
ATOM     23 BR   UNL     1      21.751   3.579  46.770  0.00  0.00    +0.000 Br
ATOM     24  C   UNL     1      20.957   3.859  49.500  0.00  0.00    +0.000 A 
ATOM     25  C   UNL     1      20.486   3.386  50.723  0.00  0.00    +0.000 A 
ATOM     26  F   UNL     1      20.293   4.264  51.720  0.00  0.00    +0.000 F 
ENDBRANCH  17  19
ENDBRANCH   4  17
BRANCH  10  27
ATOM     27  O   UNL     1      25.520  -0.286  53.924  0.00  0.00    +0.000 OA
BRANCH  27  28
ATOM     28  C   UNL     1      26.383  -1.167  53.209  0.00  0.00    +0.000 C 
BRANCH  28  29
ATOM     29  C   UNL     1      27.799  -0.754  53.390  0.00  0.00    +0.000 A 
ATOM     30  C   UNL     1      29.014  -1.408  53.274  0.00  0.00    +0.000 A 
ATOM     31  C   UNL     1      30.011  -0.466  53.633  0.00  0.00    +0.000 A 
ATOM     32  C   UNL     1      29.343   0.686  53.974  0.00  0.00    +0.000 A 
ATOM     33  O   UNL     1      28.003   0.520  53.836  0.00  0.00    +0.000 OA
ENDBRANCH  28  29
ENDBRANCH  27  28
ENDBRANCH  10  27
TORSDOF 7
ENDMDL
MODEL 7
REMARK VINA RESULT:    -8.154      3.439      5.450
REMARK INTER + INTRA:         -13.046
REMARK INTER:                 -11.641
REMARK INTRA:                  -1.405
REMARK UNBOUND:                -1.555
REMARK  Name = 
REMARK  7 active torsions:
REMARK  status: ('A' for Active; 'I' for Inactive)
REMARK    1  A    between atoms: C_2  and  C_3
REMARK    2  A    between atoms: N_5  and  C_6
REMARK    3  A    between atoms: C_9  and  N_10
REMARK    4  A    between atoms: N_10  and  C_11
REMARK    5  A    between atoms: C_24  and  O_25
REMARK    6  A    between atoms: O_25  and  C_26
REMARK    7  A    between atoms: C_26  and  C_27
REMARK                            x       y       z     vdW  Elec       q    Type
REMARK                         _______ _______ _______ _____ _____    ______ ____
ROOT
ATOM      1  C   UNL     1      24.565   0.697  52.639  0.00  0.00    +0.000 A 
ATOM      2  C   UNL     1      23.739   1.228  51.641  0.00  0.00    +0.000 A 
ATOM      3  C   UNL     1      23.372   2.576  51.709  0.00  0.00    +0.000 A 
ATOM      4  C   UNL     1      22.315   3.116  50.948  0.00  0.00    +0.000 A 
ATOM      5  N   UNL     1      21.957   4.401  51.073  0.00  0.00    +0.000 NA
ATOM      6  C   UNL     1      22.632   5.121  51.977  0.00  0.00    +0.000 A 
ATOM      7  N   UNL     1      23.636   4.694  52.765  0.00  0.00    +0.000 NA
ATOM      8  C   UNL     1      24.009   3.414  52.647  0.00  0.00    +0.000 A 
ATOM      9  C   UNL     1      25.006   2.880  53.501  0.00  0.00    +0.000 A 
ATOM     10  C   UNL     1      25.301   1.518  53.507  0.00  0.00    +0.000 A 
ENDROOT
BRANCH   1  13
ATOM     11  C   UNL     1      22.878  -0.790  53.474  0.00  0.00    +0.000 C 
ATOM     12  O   UNL     1      22.305  -1.856  53.281  0.00  0.00    +0.000 OA
ATOM     13  N   UNL     1      24.205  -0.598  53.091  0.00  0.00    +0.000 N 
ATOM     14  H   UNL     1      24.863  -1.329  53.132  0.00  0.00    +0.000 HD
BRANCH  11  16
ATOM     15  C   UNL     1      20.983   0.280  54.657  0.00  0.00    +0.000 C 
ATOM     16  C   UNL     1      22.173   0.395  54.052  0.00  0.00    +0.000 C 
ENDBRANCH  11  16
ENDBRANCH   1  13
BRANCH   4  17
ATOM     17  N   UNL     1      21.526   2.263  50.118  0.00  0.00    +0.000 N 
ATOM     18  H   UNL     1      21.899   2.040  49.235  0.00  0.00    +0.000 HD
BRANCH  17  19
ATOM     19  C   UNL     1      20.261   1.704  50.432  0.00  0.00    +0.000 A 
ATOM     20  C   UNL     1      20.157   0.476  51.092  0.00  0.00    +0.000 A 
ATOM     21  C   UNL     1      18.915  -0.023  51.501  0.00  0.00    +0.000 A 
ATOM     22  C   UNL     1      17.754   0.711  51.258  0.00  0.00    +0.000 A 
ATOM     23 BR   UNL     1      16.086   0.036  51.834  0.00  0.00    +0.000 Br
ATOM     24  C   UNL     1      17.829   1.940  50.611  0.00  0.00    +0.000 A 
ATOM     25  C   UNL     1      19.073   2.428  50.218  0.00  0.00    +0.000 A 
ATOM     26  F   UNL     1      19.131   3.624  49.610  0.00  0.00    +0.000 F 
ENDBRANCH  17  19
ENDBRANCH   4  17
BRANCH  10  27
ATOM     27  O   UNL     1      26.218   0.836  54.255  0.00  0.00    +0.000 OA
BRANCH  27  28
ATOM     28  C   UNL     1      27.629   0.912  54.065  0.00  0.00    +0.000 C 
BRANCH  28  29
ATOM     29  C   UNL     1      28.168  -0.424  53.702  0.00  0.00    +0.000 A 
ATOM     30  C   UNL     1      29.446  -0.939  53.558  0.00  0.00    +0.000 A 
ATOM     31  C   UNL     1      29.290  -2.284  53.138  0.00  0.00    +0.000 A 
ATOM     32  C   UNL     1      27.936  -2.493  53.023  0.00  0.00    +0.000 A 
ATOM     33  O   UNL     1      27.249  -1.371  53.357  0.00  0.00    +0.000 OA
ENDBRANCH  28  29
ENDBRANCH  27  28
ENDBRANCH  10  27
TORSDOF 7
ENDMDL
MODEL 8
REMARK VINA RESULT:    -8.090      4.408      7.691
REMARK INTER + INTRA:         -12.955
REMARK INTER:                 -11.714
REMARK INTRA:                  -1.242
REMARK UNBOUND:                -1.555
REMARK  Name = 
REMARK  7 active torsions:
REMARK  status: ('A' for Active; 'I' for Inactive)
REMARK    1  A    between atoms: C_2  and  C_3
REMARK    2  A    between atoms: N_5  and  C_6
REMARK    3  A    between atoms: C_9  and  N_10
REMARK    4  A    between atoms: N_10  and  C_11
REMARK    5  A    between atoms: C_24  and  O_25
REMARK    6  A    between atoms: O_25  and  C_26
REMARK    7  A    between atoms: C_26  and  C_27
REMARK                            x       y       z     vdW  Elec       q    Type
REMARK                         _______ _______ _______ _____ _____    ______ ____
ROOT
ATOM      1  C   UNL     1      24.092   3.687  50.022  0.00  0.00    +0.000 A 
ATOM      2  C   UNL     1      24.218   2.704  51.012  0.00  0.00    +0.000 A 
ATOM      3  C   UNL     1      23.205   1.751  51.156  0.00  0.00    +0.000 A 
ATOM      4  C   UNL     1      23.086   0.933  52.298  0.00  0.00    +0.000 A 
ATOM      5  N   UNL     1      22.075   0.063  52.426  0.00  0.00    +0.000 NA
ATOM      6  C   UNL     1      21.179   0.044  51.432  0.00  0.00    +0.000 A 
ATOM      7  N   UNL     1      21.191   0.796  50.316  0.00  0.00    +0.000 NA
ATOM      8  C   UNL     1      22.198   1.666  50.172  0.00  0.00    +0.000 A 
ATOM      9  C   UNL     1      22.229   2.544  49.060  0.00  0.00    +0.000 A 
ATOM     10  C   UNL     1      23.176   3.562  48.966  0.00  0.00    +0.000 A 
ENDROOT
BRANCH   1  13
ATOM     11  C   UNL     1      25.604   5.534  49.792  0.00  0.00    +0.000 C 
ATOM     12  O   UNL     1      25.684   6.732  49.548  0.00  0.00    +0.000 OA
ATOM     13  N   UNL     1      24.481   4.991  50.416  0.00  0.00    +0.000 N 
ATOM     14  H   UNL     1      23.980   5.492  51.099  0.00  0.00    +0.000 HD
BRANCH  11  16
ATOM     15  C   UNL     1      27.700   4.948  48.609  0.00  0.00    +0.000 C 
ATOM     16  C   UNL     1      26.660   4.567  49.364  0.00  0.00    +0.000 C 
ENDBRANCH  11  16
ENDBRANCH   1  13
BRANCH   4  17
ATOM     17  N   UNL     1      23.979   1.111  53.398  0.00  0.00    +0.000 N 
ATOM     18  H   UNL     1      23.643   1.639  54.157  0.00  0.00    +0.000 HD
BRANCH  17  19
ATOM     19  C   UNL     1      25.299   0.605  53.513  0.00  0.00    +0.000 A 
ATOM     20  C   UNL     1      25.608  -0.705  53.132  0.00  0.00    +0.000 A 
ATOM     21  C   UNL     1      26.928  -1.168  53.139  0.00  0.00    +0.000 A 
ATOM     22  C   UNL     1      27.964  -0.316  53.523  0.00  0.00    +0.000 A 
ATOM     23 BR   UNL     1      29.745  -0.948  53.509  0.00  0.00    +0.000 Br
ATOM     24  C   UNL     1      27.687   0.994  53.899  0.00  0.00    +0.000 A 
ATOM     25  C   UNL     1      26.368   1.444  53.878  0.00  0.00    +0.000 A 
ATOM     26  F   UNL     1      26.119   2.716  54.225  0.00  0.00    +0.000 F 
ENDBRANCH  17  19
ENDBRANCH   4  17
BRANCH  10  27
ATOM     27  O   UNL     1      23.352   4.490  47.980  0.00  0.00    +0.000 OA
BRANCH  27  28
ATOM     28  C   UNL     1      22.368   5.444  47.588  0.00  0.00    +0.000 C 
BRANCH  28  29
ATOM     29  C   UNL     1      21.832   5.102  46.245  0.00  0.00    +0.000 A 
ATOM     30  C   UNL     1      21.498   3.914  45.617  0.00  0.00    +0.000 A 
ATOM     31  C   UNL     1      21.086   4.258  44.304  0.00  0.00    +0.000 A 
ATOM     32  C   UNL     1      21.225   5.622  44.206  0.00  0.00    +0.000 A 
ATOM     33  O   UNL     1      21.681   6.141  45.374  0.00  0.00    +0.000 OA
ENDBRANCH  28  29
ENDBRANCH  27  28
ENDBRANCH  10  27
TORSDOF 7
ENDMDL
MODEL 9
REMARK VINA RESULT:    -8.035      2.280      3.638
REMARK INTER + INTRA:         -12.878
REMARK INTER:                 -11.839
REMARK INTRA:                  -1.038
REMARK UNBOUND:                -1.555
REMARK  Name = 
REMARK  7 active torsions:
REMARK  status: ('A' for Active; 'I' for Inactive)
REMARK    1  A    between atoms: C_2  and  C_3
REMARK    2  A    between atoms: N_5  and  C_6
REMARK    3  A    between atoms: C_9  and  N_10
REMARK    4  A    between atoms: N_10  and  C_11
REMARK    5  A    between atoms: C_24  and  O_25
REMARK    6  A    between atoms: O_25  and  C_26
REMARK    7  A    between atoms: C_26  and  C_27
REMARK                            x       y       z     vdW  Elec       q    Type
REMARK                         _______ _______ _______ _____ _____    ______ ____
ROOT
ATOM      1  C   UNL     1      23.867   1.408  52.045  0.00  0.00    +0.000 A 
ATOM      2  C   UNL     1      23.500   2.239  50.980  0.00  0.00    +0.000 A 
ATOM      3  C   UNL     1      24.479   3.021  50.360  0.00  0.00    +0.000 A 
ATOM      4  C   UNL     1      24.166   4.101  49.509  0.00  0.00    +0.000 A 
ATOM      5  N   UNL     1      25.129   4.861  48.970  0.00  0.00    +0.000 NA
ATOM      6  C   UNL     1      26.387   4.558  49.312  0.00  0.00    +0.000 A 
ATOM      7  N   UNL     1      26.786   3.567  50.131  0.00  0.00    +0.000 NA
ATOM      8  C   UNL     1      25.837   2.796  50.672  0.00  0.00    +0.000 A 
ATOM      9  C   UNL     1      26.183   1.785  51.604  0.00  0.00    +0.000 A 
ATOM     10  C   UNL     1      25.206   1.075  52.299  0.00  0.00    +0.000 A 
ENDROOT
BRANCH   1  13
ATOM     11  C   UNL     1      21.969   0.402  53.112  0.00  0.00    +0.000 C 
ATOM     12  O   UNL     1      21.567  -0.122  54.144  0.00  0.00    +0.000 OA
ATOM     13  N   UNL     1      22.957   1.386  53.132  0.00  0.00    +0.000 N 
ATOM     14  H   UNL     1      23.021   2.036  53.868  0.00  0.00    +0.000 HD
BRANCH  11  16
ATOM     15  C   UNL     1      20.301   0.352  51.281  0.00  0.00    +0.000 C 
ATOM     16  C   UNL     1      21.490  -0.033  51.765  0.00  0.00    +0.000 C 
ENDBRANCH  11  16
ENDBRANCH   1  13
BRANCH   4  17
ATOM     17  N   UNL     1      22.804   4.477  49.308  0.00  0.00    +0.000 N 
ATOM     18  H   UNL     1      22.165   3.747  49.141  0.00  0.00    +0.000 HD
BRANCH  17  19
ATOM     19  C   UNL     1      22.273   5.792  49.322  0.00  0.00    +0.000 A 
ATOM     20  C   UNL     1      21.813   6.400  48.149  0.00  0.00    +0.000 A 
ATOM     21  C   UNL     1      21.188   7.651  48.180  0.00  0.00    +0.000 A 
ATOM     22  C   UNL     1      21.007   8.311  49.396  0.00  0.00    +0.000 A 
ATOM     23 BR   UNL     1      20.143   9.991  49.426  0.00  0.00    +0.000 Br
ATOM     24  C   UNL     1      21.446   7.726  50.579  0.00  0.00    +0.000 A 
ATOM     25  C   UNL     1      22.059   6.476  50.533  0.00  0.00    +0.000 A 
ATOM     26  F   UNL     1      22.462   5.916  51.686  0.00  0.00    +0.000 F 
ENDBRANCH  17  19
ENDBRANCH   4  17
BRANCH  10  27
ATOM     27  O   UNL     1      25.355   0.081  53.224  0.00  0.00    +0.000 OA
BRANCH  27  28
ATOM     28  C   UNL     1      26.120  -1.104  53.016  0.00  0.00    +0.000 C 
BRANCH  28  29
ATOM     29  C   UNL     1      27.534  -0.874  53.411  0.00  0.00    +0.000 A 
ATOM     30  C   UNL     1      28.735  -1.478  53.081  0.00  0.00    +0.000 A 
ATOM     31  C   UNL     1      29.736  -0.823  53.842  0.00  0.00    +0.000 A 
ATOM     32  C   UNL     1      29.081   0.112  54.608  0.00  0.00    +0.000 A 
ATOM     33  O   UNL     1      27.746   0.084  54.359  0.00  0.00    +0.000 OA
ENDBRANCH  28  29
ENDBRANCH  27  28
ENDBRANCH  10  27
TORSDOF 7
ENDMDL
