REMARK  Name = 
REMARK  5 active torsions:
REMARK  status: ('A' for Active; 'I' for Inactive)
REMARK    1  A    between atoms: C_2  and  C_4
REMARK    2  A    between atoms: C_4  and  C_5
REMARK    3  A    between atoms: C_5  and  C_6
REMARK    4  A    between atoms: C_6  and  C_7
REMARK    5  A    between atoms: N_9  and  C_10
REMARK                            x       y       z     vdW  Elec       q    Type
REMARK                         _______ _______ _______ _____ _____    ______ ____
ROOT
ATOM      1  C   UNL     1       1.923   1.758   1.304  0.00  0.00    +0.000 A 
ATOM      2  C   UNL     1       3.151   1.356   0.811  0.00  0.00    +0.000 A 
ATOM      3  C   UNL     1       3.684   0.162   1.266  0.00  0.00    +0.000 A 
ATOM      4  N   UNL     1       4.915  -0.316   0.863  0.00  0.00    +0.000 N 
ATOM      5  C   UNL     1       5.740   0.281  -0.198  0.00  0.00    +0.000 C 
ATOM      6  C   UNL     1       5.699  -0.594  -1.459  0.00  0.00    +0.000 C 
ATOM      7  O   UNL     1       6.113  -1.941  -1.173  0.00  0.00    +0.000 OA
ATOM      8  C   UNL     1       5.251  -2.528  -0.181  0.00  0.00    +0.000 C 
ATOM      9  C   UNL     1       5.263  -1.724   1.132  0.00  0.00    +0.000 C 
ATOM     10  N   UNL     1       3.001  -0.545   2.186  0.00  0.00    +0.000 NA
ATOM     11  C   UNL     1       1.859  -0.028   2.668  0.00  0.00    +0.000 A 
ATOM     12  N   UNL     1       1.290   1.118   2.288  0.00  0.00    +0.000 NA
ENDROOT
BRANCH   1  15
ATOM     13  C   UNL     1       1.114   3.389  -0.405  0.00  0.00    +0.000 C 
ATOM     14  O   UNL     1       0.643   4.517  -0.565  0.00  0.00    +0.000 OA
ATOM     15  N   UNL     1       1.307   2.929   0.868  0.00  0.00    +0.000 N 
ATOM     16  H   UNL     1       0.958   3.511   1.582  0.00  0.00    +0.000 HD
BRANCH  13  17
ATOM     17  C   UNL     1       1.297   2.435  -1.576  0.00  0.00    +0.000 C 
BRANCH  17  18
ATOM     18  C   UNL     1       1.324   3.120  -2.946  0.00  0.00    +0.000 C 
BRANCH  18  19
ATOM     19  C   UNL     1       2.423   4.164  -3.158  0.00  0.00    +0.000 C 
BRANCH  19  21
ATOM     20  O   UNL     1       4.213   2.679  -2.368  0.00  0.00    +0.000 OA
ATOM     21  C   UNL     1       3.832   3.673  -2.963  0.00  0.00    +0.000 C 
ATOM     22  O   UNL     1       4.730   4.534  -3.492  0.00  0.00    +0.000 OA
ENDBRANCH  19  21
ENDBRANCH  18  19
ENDBRANCH  17  18
ENDBRANCH  13  17
ENDBRANCH   1  15
TORSDOF 5
