REMARK  Name = 
REMARK  12 active torsions:
REMARK  status: ('A' for Active; 'I' for Inactive)
REMARK    1  A    between atoms: C_1  and  O_2
REMARK    2  A    between atoms: O_2  and  C_3
REMARK    3  A    between atoms: C_5  and  N_6
REMARK    4  A    between atoms: N_6  and  C_7
REMARK    5  A    between atoms: N_6  and  C_8
REMARK    6  A    between atoms: C_8  and  C_9
REMARK    7  A    between atoms: C_8  and  C_10
REMARK    8  A    between atoms: C_11  and  N_12
REMARK    9  A    between atoms: C_13  and  C_15
REMARK   10  A    between atoms: C_22  and  N_23
REMARK   11  A    between atoms: C_28  and  C_29
REMARK   12  A    between atoms: N_31  and  C_32
REMARK                            x       y       z     vdW  Elec       q    Type
REMARK                         _______ _______ _______ _____ _____    ______ ____
ROOT
ATOM      1  C   UNL     1       0.760  -2.283  -1.303  0.00  0.00    +0.000 A 
ATOM      2  C   UNL     1       2.092  -2.231  -1.766  0.00  0.00    +0.000 A 
ATOM      3  C   UNL     1       2.525  -2.903  -2.935  0.00  0.00    +0.000 A 
ATOM      4  C   UNL     1       1.505  -3.630  -3.595  0.00  0.00    +0.000 A 
ATOM      5  C   UNL     1       0.218  -3.809  -3.065  0.00  0.00    +0.000 A 
ATOM      6  C   UNL     1      -0.204  -3.083  -1.958  0.00  0.00    +0.000 A 
ENDROOT
BRANCH   6   7
ATOM      7  N   UNL     1      -1.548  -3.085  -1.509  0.00  0.00    +0.000 N 
ATOM      8  C   UNL     1      -2.754  -3.462  -2.102  0.00  0.00    +0.000 A 
ATOM      9  N   UNL     1      -3.839  -2.877  -1.570  0.00  0.00    +0.000 NA
ATOM     10  C   UNL     1      -5.030  -3.148  -2.133  0.00  0.00    +0.000 A 
ATOM     11  C   UNL     1      -5.199  -3.990  -3.201  0.00  0.00    +0.000 A 
ATOM     12  C   UNL     1      -4.047  -4.544  -3.707  0.00  0.00    +0.000 A 
ATOM     13  N   UNL     1      -2.827  -4.294  -3.155  0.00  0.00    +0.000 NA
ATOM     14  H   UNL     1      -1.652  -2.752  -0.588  0.00  0.00    +0.000 HD
BRANCH  12  15
ATOM     15  C   UNL     1      -4.044  -5.097  -5.077  0.00  0.00    +0.000 A 
ATOM     16  C   UNL     1      -2.868  -5.081  -5.808  0.00  0.00    +0.000 A 
ATOM     17  N   UNL     1      -3.190  -4.453  -6.981  0.00  0.00    +0.000 N 
ATOM     18  C   UNL     1      -2.235  -3.727  -7.785  0.00  0.00    +0.000 C 
ATOM     19  C   UNL     1      -4.549  -4.494  -7.190  0.00  0.00    +0.000 A 
ATOM     20  C   UNL     1      -5.345  -3.991  -8.229  0.00  0.00    +0.000 A 
ATOM     21  C   UNL     1      -6.710  -4.287  -8.208  0.00  0.00    +0.000 A 
ATOM     22  C   UNL     1      -7.259  -5.049  -7.180  0.00  0.00    +0.000 A 
ATOM     23  C   UNL     1      -6.476  -5.428  -6.080  0.00  0.00    +0.000 A 
ATOM     24  C   UNL     1      -5.096  -5.118  -6.063  0.00  0.00    +0.000 A 
ENDBRANCH  12  15
ENDBRANCH   6   7
BRANCH   4  25
ATOM     25  N   UNL     1       1.590  -3.860  -4.971  0.00  0.00    +0.000 N 
ATOM     26  C   UNL     1       1.723  -5.101  -5.562  0.00  0.00    +0.000 C 
ATOM     27  O   UNL     1       1.576  -6.182  -5.006  0.00  0.00    +0.000 OA
ATOM     28  H   UNL     1       1.551  -3.076  -5.566  0.00  0.00    +0.000 HD
BRANCH  26  29
ATOM     29  C   UNL     1       2.201  -5.042  -6.974  0.00  0.00    +0.000 A 
ATOM     30  C   UNL     1       2.099  -3.886  -7.765  0.00  0.00    +0.000 A 
ATOM     31  C   UNL     1       2.678  -3.858  -9.030  0.00  0.00    +0.000 A 
ATOM     32  C   UNL     1       3.330  -4.995  -9.474  0.00  0.00    +0.000 A 
ATOM     33  N   UNL     1       3.435  -6.130  -8.746  0.00  0.00    +0.000 NA
ATOM     34  C   UNL     1       2.870  -6.130  -7.509  0.00  0.00    +0.000 A 
ENDBRANCH  26  29
ENDBRANCH   4  25
BRANCH   1  36
ATOM     35  C   UNL     1       1.198  -0.633   0.380  0.00  0.00    +0.000 C 
ATOM     36  O   UNL     1       0.288  -1.540  -0.238  0.00  0.00    +0.000 OA
ENDBRANCH   1  36
BRANCH   3  37
ATOM     37  N   UNL     1       3.876  -2.803  -3.324  0.00  0.00    +0.000 N 
ATOM     38  C   UNL     1       4.399  -2.920  -4.687  0.00  0.00    +0.000 C 
BRANCH  37  39
ATOM     39  C   UNL     1       4.915  -2.990  -2.263  0.00  0.00    +0.000 C 
ATOM     40  C   UNL     1       5.367  -4.454  -2.177  0.00  0.00    +0.000 C 
ATOM     41  C   UNL     1       6.110  -2.057  -2.514  0.00  0.00    +0.000 C 
ENDBRANCH  37  39
ENDBRANCH   3  37
TORSDOF 7
