MODEL 1
REMARK VINA RESULT:    -7.992      0.000      0.000
REMARK INTER + INTRA:         -11.129
REMARK INTER:                 -10.329
REMARK INTRA:                  -0.800
REMARK UNBOUND:                -0.800
REMARK  Name = 
REMARK  8 active torsions:
REMARK  status: ('A' for Active; 'I' for Inactive)
REMARK    1  A    between atoms: C_2  and  C_3
REMARK    2  A    between atoms: N_5  and  C_6
REMARK    3  A    between atoms: C_12  and  N_13
REMARK    4  A    between atoms: N_13  and  C_14
REMARK    5  A    between atoms: N_17  and  C_18
REMARK    6  A    between atoms: N_23  and  C_24
REMARK    7  A    between atoms: C_24  and  C_25
REMARK    8  A    between atoms: C_24  and  C_26
REMARK                            x       y       z     vdW  Elec       q    Type
REMARK                         _______ _______ _______ _____ _____    ______ ____
ROOT
ATOM      1  C   UNL     1      27.504   6.803  48.680  0.00  0.00    +0.000 C 
ATOM      2  C   UNL     1      28.407   5.570  48.580  0.00  0.00    +0.000 C 
ATOM      3  C   UNL     1      27.463   4.377  48.621  0.00  0.00    +0.000 C 
ATOM      4  N   UNL     1      26.280   4.867  49.292  0.00  0.00    +0.000 N 
ATOM      5  C   UNL     1      25.609   4.149  50.245  0.00  0.00    +0.000 A 
ATOM      6  N   UNL     1      24.463   4.673  50.727  0.00  0.00    +0.000 NA
ATOM      7  C   UNL     1      23.736   4.030  51.684  0.00  0.00    +0.000 A 
ATOM      8  C   UNL     1      24.248   2.818  52.169  0.00  0.00    +0.000 A 
ATOM      9  N   UNL     1      23.813   1.953  53.152  0.00  0.00    +0.000 NA
ATOM     10  C   UNL     1      24.749   1.028  53.216  0.00  0.00    +0.000 A 
ATOM     11  N   UNL     1      25.762   1.256  52.320  0.00  0.00    +0.000 N 
ATOM     12  C   UNL     1      25.443   2.391  51.624  0.00  0.00    +0.000 A 
ATOM     13  N   UNL     1      26.148   2.990  50.659  0.00  0.00    +0.000 NA
ATOM     14  C   UNL     1      26.154   6.314  49.249  0.00  0.00    +0.000 C 
ENDROOT
BRANCH   1  17
ATOM     15  C   UNL     1      29.052   8.853  49.013  0.00  0.00    +0.000 C 
ATOM     16  O   UNL     1      29.375   9.719  49.825  0.00  0.00    +0.000 OA
ATOM     17  N   UNL     1      28.127   7.924  49.383  0.00  0.00    +0.000 N 
ATOM     18  H   UNL     1      27.815   8.029  50.311  0.00  0.00    +0.000 HD
BRANCH  15  20
ATOM     19  C   UNL     1      30.829   8.219  47.450  0.00  0.00    +0.000 C 
ATOM     20  C   UNL     1      29.640   8.807  47.656  0.00  0.00    +0.000 C 
ENDBRANCH  15  20
ENDBRANCH   1  17
BRANCH  11  21
ATOM     21  C   UNL     1      26.974   0.461  52.196  0.00  0.00    +0.000 C 
ATOM     22  C   UNL     1      28.075   0.931  53.146  0.00  0.00    +0.000 C 
ATOM     23  C   UNL     1      26.694  -1.036  52.350  0.00  0.00    +0.000 C 
ENDBRANCH  11  21
BRANCH   7  24
ATOM     24  N   UNL     1      22.563   4.580  52.240  0.00  0.00    +0.000 N 
ATOM     25  H   UNL     1      22.692   5.281  52.920  0.00  0.00    +0.000 HD
BRANCH  24  26
ATOM     26  C   UNL     1      21.285   4.258  51.949  0.00  0.00    +0.000 A 
ATOM     27  C   UNL     1      20.443   3.282  52.515  0.00  0.00    +0.000 A 
ATOM     28  N   UNL     1      19.265   3.200  51.886  0.00  0.00    +0.000 NA
ATOM     29  N   UNL     1      19.373   4.120  50.908  0.00  0.00    +0.000 N 
ATOM     30  C   UNL     1      18.335   4.207  49.911  0.00  0.00    +0.000 C 
ATOM     31  C   UNL     1      20.539   4.830  50.948  0.00  0.00    +0.000 A 
ENDBRANCH  24  26
ENDBRANCH   7  24
TORSDOF 5
ENDMDL
MODEL 2
REMARK VINA RESULT:    -7.937      2.757      7.983
REMARK INTER + INTRA:         -11.056
REMARK INTER:                 -10.459
REMARK INTRA:                  -0.598
REMARK UNBOUND:                -0.800
REMARK  Name = 
REMARK  8 active torsions:
REMARK  status: ('A' for Active; 'I' for Inactive)
REMARK    1  A    between atoms: C_2  and  C_3
REMARK    2  A    between atoms: N_5  and  C_6
REMARK    3  A    between atoms: C_12  and  N_13
REMARK    4  A    between atoms: N_13  and  C_14
REMARK    5  A    between atoms: N_17  and  C_18
REMARK    6  A    between atoms: N_23  and  C_24
REMARK    7  A    between atoms: C_24  and  C_25
REMARK    8  A    between atoms: C_24  and  C_26
REMARK                            x       y       z     vdW  Elec       q    Type
REMARK                         _______ _______ _______ _____ _____    ______ ____
ROOT
ATOM      1  C   UNL     1      26.901   2.040  52.562  0.00  0.00    +0.000 C 
ATOM      2  C   UNL     1      25.417   2.070  52.937  0.00  0.00    +0.000 C 
ATOM      3  C   UNL     1      24.687   2.461  51.661  0.00  0.00    +0.000 C 
ATOM      4  N   UNL     1      25.674   3.167  50.874  0.00  0.00    +0.000 N 
ATOM      5  C   UNL     1      25.398   4.319  50.187  0.00  0.00    +0.000 A 
ATOM      6  N   UNL     1      26.377   4.829  49.411  0.00  0.00    +0.000 NA
ATOM      7  C   UNL     1      26.191   5.977  48.700  0.00  0.00    +0.000 A 
ATOM      8  C   UNL     1      24.953   6.620  48.835  0.00  0.00    +0.000 A 
ATOM      9  N   UNL     1      24.457   7.800  48.319  0.00  0.00    +0.000 NA
ATOM     10  C   UNL     1      23.265   7.925  48.864  0.00  0.00    +0.000 A 
ATOM     11  N   UNL     1      22.970   6.881  49.704  0.00  0.00    +0.000 N 
ATOM     12  C   UNL     1      24.036   6.024  49.678  0.00  0.00    +0.000 A 
ATOM     13  N   UNL     1      24.188   4.879  50.353  0.00  0.00    +0.000 NA
ATOM     14  C   UNL     1      27.041   2.859  51.259  0.00  0.00    +0.000 C 
ENDROOT
BRANCH   1  17
ATOM     15  C   UNL     1      28.931   1.886  54.163  0.00  0.00    +0.000 C 
ATOM     16  O   UNL     1      29.492   2.459  55.096  0.00  0.00    +0.000 OA
ATOM     17  N   UNL     1      27.787   2.427  53.659  0.00  0.00    +0.000 N 
ATOM     18  H   UNL     1      27.498   3.243  54.129  0.00  0.00    +0.000 HD
BRANCH  15  20
ATOM     19  C   UNL     1      29.041  -0.556  54.010  0.00  0.00    +0.000 C 
ATOM     20  C   UNL     1      29.475   0.640  53.581  0.00  0.00    +0.000 C 
ENDBRANCH  15  20
ENDBRANCH   1  17
BRANCH  11  21
ATOM     21  C   UNL     1      21.766   6.763  50.513  0.00  0.00    +0.000 C 
ATOM     22  C   UNL     1      20.973   8.069  50.563  0.00  0.00    +0.000 C 
ATOM     23  C   UNL     1      20.893   5.587  50.071  0.00  0.00    +0.000 C 
ENDBRANCH  11  21
BRANCH   7  24
ATOM     24  N   UNL     1      27.214   6.558  47.922  0.00  0.00    +0.000 N 
ATOM     25  H   UNL     1      26.930   6.987  47.083  0.00  0.00    +0.000 HD
BRANCH  24  26
ATOM     26  C   UNL     1      28.535   6.593  48.194  0.00  0.00    +0.000 A 
ATOM     27  C   UNL     1      29.470   5.545  48.297  0.00  0.00    +0.000 A 
ATOM     28  N   UNL     1      30.676   5.976  48.681  0.00  0.00    +0.000 NA
ATOM     29  N   UNL     1      30.495   7.302  48.835  0.00  0.00    +0.000 N 
ATOM     30  C   UNL     1      31.559   8.092  49.404  0.00  0.00    +0.000 C 
ATOM     31  C   UNL     1      29.246   7.731  48.487  0.00  0.00    +0.000 A 
ENDBRANCH  24  26
ENDBRANCH   7  24
TORSDOF 5
ENDMDL
MODEL 3
REMARK VINA RESULT:    -7.769      2.840      6.287
REMARK INTER + INTRA:         -10.840
REMARK INTER:                 -10.269
REMARK INTRA:                  -0.571
REMARK UNBOUND:                -0.800
REMARK  Name = 
REMARK  8 active torsions:
REMARK  status: ('A' for Active; 'I' for Inactive)
REMARK    1  A    between atoms: C_2  and  C_3
REMARK    2  A    between atoms: N_5  and  C_6
REMARK    3  A    between atoms: C_12  and  N_13
REMARK    4  A    between atoms: N_13  and  C_14
REMARK    5  A    between atoms: N_17  and  C_18
REMARK    6  A    between atoms: N_23  and  C_24
REMARK    7  A    between atoms: C_24  and  C_25
REMARK    8  A    between atoms: C_24  and  C_26
REMARK                            x       y       z     vdW  Elec       q    Type
REMARK                         _______ _______ _______ _____ _____    ______ ____
ROOT
ATOM      1  C   UNL     1      27.511   1.512  52.539  0.00  0.00    +0.000 C 
ATOM      2  C   UNL     1      26.774   0.192  52.781  0.00  0.00    +0.000 C 
ATOM      3  C   UNL     1      25.570   0.226  51.850  0.00  0.00    +0.000 C 
ATOM      4  N   UNL     1      25.334   1.632  51.607  0.00  0.00    +0.000 N 
ATOM      5  C   UNL     1      24.083   2.189  51.602  0.00  0.00    +0.000 A 
ATOM      6  N   UNL     1      23.985   3.493  51.266  0.00  0.00    +0.000 NA
ATOM      7  C   UNL     1      22.779   4.130  51.243  0.00  0.00    +0.000 A 
ATOM      8  C   UNL     1      21.654   3.381  51.615  0.00  0.00    +0.000 A 
ATOM      9  N   UNL     1      20.322   3.715  51.755  0.00  0.00    +0.000 NA
ATOM     10  C   UNL     1      19.753   2.618  52.210  0.00  0.00    +0.000 A 
ATOM     11  N   UNL     1      20.654   1.595  52.366  0.00  0.00    +0.000 N 
ATOM     12  C   UNL     1      21.876   2.065  51.966  0.00  0.00    +0.000 A 
ATOM     13  N   UNL     1      23.044   1.415  51.957  0.00  0.00    +0.000 NA
ATOM     14  C   UNL     1      26.499   2.462  51.862  0.00  0.00    +0.000 C 
ENDROOT
BRANCH   1  17
ATOM     15  C   UNL     1      29.350   1.716  54.351  0.00  0.00    +0.000 C 
ATOM     16  O   UNL     1      29.682   2.358  55.346  0.00  0.00    +0.000 OA
ATOM     17  N   UNL     1      28.179   2.032  53.731  0.00  0.00    +0.000 N 
ATOM     18  H   UNL     1      27.683   2.757  54.175  0.00  0.00    +0.000 HD
BRANCH  15  20
ATOM     19  C   UNL     1      29.844  -0.658  54.006  0.00  0.00    +0.000 C 
ATOM     20  C   UNL     1      30.195   0.624  53.818  0.00  0.00    +0.000 C 
ENDBRANCH  15  20
ENDBRANCH   1  17
BRANCH  11  21
ATOM     21  C   UNL     1      20.354   0.283  52.919  0.00  0.00    +0.000 C 
ATOM     22  C   UNL     1      20.623   0.213  54.422  0.00  0.00    +0.000 C 
ATOM     23  C   UNL     1      18.934  -0.171  52.575  0.00  0.00    +0.000 C 
ENDBRANCH  11  21
BRANCH   7  24
ATOM     24  N   UNL     1      22.656   5.502  50.946  0.00  0.00    +0.000 N 
ATOM     25  H   UNL     1      21.821   5.936  51.237  0.00  0.00    +0.000 HD
BRANCH  24  26
ATOM     26  C   UNL     1      23.547   6.290  50.309  0.00  0.00    +0.000 A 
ATOM     27  C   UNL     1      23.757   6.495  48.932  0.00  0.00    +0.000 A 
ATOM     28  N   UNL     1      24.810   7.284  48.690  0.00  0.00    +0.000 NA
ATOM     29  N   UNL     1      25.275   7.565  49.923  0.00  0.00    +0.000 N 
ATOM     30  C   UNL     1      26.521   8.277  50.056  0.00  0.00    +0.000 C 
ATOM     31  C   UNL     1      24.510   7.048  50.929  0.00  0.00    +0.000 A 
ENDBRANCH  24  26
ENDBRANCH   7  24
TORSDOF 5
ENDMDL
MODEL 4
REMARK VINA RESULT:    -7.737      2.414      7.159
REMARK INTER + INTRA:         -10.798
REMARK INTER:                 -10.464
REMARK INTRA:                  -0.335
REMARK UNBOUND:                -0.800
REMARK  Name = 
REMARK  8 active torsions:
REMARK  status: ('A' for Active; 'I' for Inactive)
REMARK    1  A    between atoms: C_2  and  C_3
REMARK    2  A    between atoms: N_5  and  C_6
REMARK    3  A    between atoms: C_12  and  N_13
REMARK    4  A    between atoms: N_13  and  C_14
REMARK    5  A    between atoms: N_17  and  C_18
REMARK    6  A    between atoms: N_23  and  C_24
REMARK    7  A    between atoms: C_24  and  C_25
REMARK    8  A    between atoms: C_24  and  C_26
REMARK                            x       y       z     vdW  Elec       q    Type
REMARK                         _______ _______ _______ _____ _____    ______ ____
ROOT
ATOM      1  C   UNL     1      27.040   1.810  52.193  0.00  0.00    +0.000 C 
ATOM      2  C   UNL     1      25.697   1.182  52.573  0.00  0.00    +0.000 C 
ATOM      3  C   UNL     1      24.767   1.485  51.407  0.00  0.00    +0.000 C 
ATOM      4  N   UNL     1      25.336   2.655  50.778  0.00  0.00    +0.000 N 
ATOM      5  C   UNL     1      24.581   3.711  50.342  0.00  0.00    +0.000 A 
ATOM      6  N   UNL     1      25.219   4.701  49.683  0.00  0.00    +0.000 NA
ATOM      7  C   UNL     1      24.546   5.794  49.222  0.00  0.00    +0.000 A 
ATOM      8  C   UNL     1      23.173   5.860  49.493  0.00  0.00    +0.000 A 
ATOM      9  N   UNL     1      22.220   6.823  49.231  0.00  0.00    +0.000 NA
ATOM     10  C   UNL     1      21.122   6.364  49.796  0.00  0.00    +0.000 A 
ATOM     11  N   UNL     1      21.324   5.152  50.405  0.00  0.00    +0.000 N 
ATOM     12  C   UNL     1      22.631   4.805  50.200  0.00  0.00    +0.000 A 
ATOM     13  N   UNL     1      23.268   3.708  50.625  0.00  0.00    +0.000 NA
ATOM     14  C   UNL     1      26.744   2.844  51.085  0.00  0.00    +0.000 C 
ENDROOT
BRANCH   1  17
ATOM     15  C   UNL     1      28.893   1.830  54.003  0.00  0.00    +0.000 C 
ATOM     16  O   UNL     1      29.342   2.487  54.941  0.00  0.00    +0.000 OA
ATOM     17  N   UNL     1      27.799   2.302  53.342  0.00  0.00    +0.000 N 
ATOM     18  H   UNL     1      27.449   3.144  53.713  0.00  0.00    +0.000 HD
BRANCH  15  20
ATOM     19  C   UNL     1      29.025  -0.616  54.013  0.00  0.00    +0.000 C 
ATOM     20  C   UNL     1      29.517   0.557  53.581  0.00  0.00    +0.000 C 
ENDBRANCH  15  20
ENDBRANCH   1  17
BRANCH  11  21
ATOM     21  C   UNL     1      20.331   4.421  51.178  0.00  0.00    +0.000 C 
ATOM     22  C   UNL     1      19.540   3.435  50.320  0.00  0.00    +0.000 C 
ATOM     23  C   UNL     1      20.947   3.739  52.402  0.00  0.00    +0.000 C 
ENDBRANCH  11  21
BRANCH   7  24
ATOM     24  N   UNL     1      25.197   6.864  48.576  0.00  0.00    +0.000 N 
ATOM     25  H   UNL     1      25.010   6.970  47.615  0.00  0.00    +0.000 HD
BRANCH  24  26
ATOM     26  C   UNL     1      26.047   7.760  49.119  0.00  0.00    +0.000 A 
ATOM     27  C   UNL     1      25.790   8.872  49.943  0.00  0.00    +0.000 A 
ATOM     28  N   UNL     1      26.895   9.581  50.201  0.00  0.00    +0.000 NA
ATOM     29  N   UNL     1      27.851   8.918  49.522  0.00  0.00    +0.000 N 
ATOM     30  C   UNL     1      29.172   9.490  49.435  0.00  0.00    +0.000 C 
ATOM     31  C   UNL     1      27.405   7.780  48.914  0.00  0.00    +0.000 A 
ENDBRANCH  24  26
ENDBRANCH   7  24
TORSDOF 5
ENDMDL
MODEL 5
REMARK VINA RESULT:    -7.575      4.613      8.016
REMARK INTER + INTRA:         -10.589
REMARK INTER:                  -9.725
REMARK INTRA:                  -0.863
REMARK UNBOUND:                -0.800
REMARK  Name = 
REMARK  8 active torsions:
REMARK  status: ('A' for Active; 'I' for Inactive)
REMARK    1  A    between atoms: C_2  and  C_3
REMARK    2  A    between atoms: N_5  and  C_6
REMARK    3  A    between atoms: C_12  and  N_13
REMARK    4  A    between atoms: N_13  and  C_14
REMARK    5  A    between atoms: N_17  and  C_18
REMARK    6  A    between atoms: N_23  and  C_24
REMARK    7  A    between atoms: C_24  and  C_25
REMARK    8  A    between atoms: C_24  and  C_26
REMARK                            x       y       z     vdW  Elec       q    Type
REMARK                         _______ _______ _______ _____ _____    ______ ____
ROOT
ATOM      1  C   UNL     1      19.757   0.321  52.948  0.00  0.00    +0.000 C 
ATOM      2  C   UNL     1      20.510  -0.883  53.521  0.00  0.00    +0.000 C 
ATOM      3  C   UNL     1      21.743  -0.302  54.199  0.00  0.00    +0.000 C 
ATOM      4  N   UNL     1      21.962   0.965  53.537  0.00  0.00    +0.000 N 
ATOM      5  C   UNL     1      23.202   1.406  53.160  0.00  0.00    +0.000 A 
ATOM      6  N   UNL     1      23.288   2.648  52.640  0.00  0.00    +0.000 NA
ATOM      7  C   UNL     1      24.482   3.164  52.229  0.00  0.00    +0.000 A 
ATOM      8  C   UNL     1      25.608   2.336  52.341  0.00  0.00    +0.000 A 
ATOM      9  N   UNL     1      26.928   2.510  51.979  0.00  0.00    +0.000 NA
ATOM     10  C   UNL     1      27.501   1.357  52.255  0.00  0.00    +0.000 A 
ATOM     11  N   UNL     1      26.613   0.452  52.780  0.00  0.00    +0.000 N 
ATOM     12  C   UNL     1      25.398   1.075  52.862  0.00  0.00    +0.000 A 
ATOM     13  N   UNL     1      24.242   0.567  53.304  0.00  0.00    +0.000 NA
ATOM     14  C   UNL     1      20.774   1.481  52.879  0.00  0.00    +0.000 C 
ENDROOT
BRANCH   1  17
ATOM     15  C   UNL     1      17.801  -0.481  51.452  0.00  0.00    +0.000 C 
ATOM     16  O   UNL     1      17.445  -0.599  50.280  0.00  0.00    +0.000 OA
ATOM     17  N   UNL     1      19.040   0.022  51.708  0.00  0.00    +0.000 N 
ATOM     18  H   UNL     1      19.558   0.226  50.896  0.00  0.00    +0.000 HD
BRANCH  15  20
ATOM     19  C   UNL     1      16.985  -2.096  53.102  0.00  0.00    +0.000 C 
ATOM     20  C   UNL     1      16.915  -0.865  52.572  0.00  0.00    +0.000 C 
ENDBRANCH  15  20
ENDBRANCH   1  17
BRANCH  11  21
ATOM     21  C   UNL     1      26.918  -0.930  53.117  0.00  0.00    +0.000 C 
ATOM     22  C   UNL     1      26.505  -1.901  52.011  0.00  0.00    +0.000 C 
ATOM     23  C   UNL     1      28.386  -1.112  53.511  0.00  0.00    +0.000 C 
ENDBRANCH  11  21
BRANCH   7  24
ATOM     24  N   UNL     1      24.591   4.438  51.636  0.00  0.00    +0.000 N 
ATOM     25  H   UNL     1      25.420   4.934  51.822  0.00  0.00    +0.000 HD
BRANCH  24  26
ATOM     26  C   UNL     1      23.691   5.056  50.844  0.00  0.00    +0.000 A 
ATOM     27  C   UNL     1      22.811   6.119  51.125  0.00  0.00    +0.000 A 
ATOM     28  N   UNL     1      21.997   6.391  50.099  0.00  0.00    +0.000 NA
ATOM     29  N   UNL     1      22.357   5.483  49.171  0.00  0.00    +0.000 N 
ATOM     30  C   UNL     1      21.575   5.367  47.965  0.00  0.00    +0.000 C 
ATOM     31  C   UNL     1      23.416   4.706  49.545  0.00  0.00    +0.000 A 
ENDBRANCH  24  26
ENDBRANCH   7  24
TORSDOF 5
ENDMDL
MODEL 6
REMARK VINA RESULT:    -7.571      3.062      6.256
REMARK INTER + INTRA:         -10.584
REMARK INTER:                 -10.096
REMARK INTRA:                  -0.488
REMARK UNBOUND:                -0.800
REMARK  Name = 
REMARK  8 active torsions:
REMARK  status: ('A' for Active; 'I' for Inactive)
REMARK    1  A    between atoms: C_2  and  C_3
REMARK    2  A    between atoms: N_5  and  C_6
REMARK    3  A    between atoms: C_12  and  N_13
REMARK    4  A    between atoms: N_13  and  C_14
REMARK    5  A    between atoms: N_17  and  C_18
REMARK    6  A    between atoms: N_23  and  C_24
REMARK    7  A    between atoms: C_24  and  C_25
REMARK    8  A    between atoms: C_24  and  C_26
REMARK                            x       y       z     vdW  Elec       q    Type
REMARK                         _______ _______ _______ _____ _____    ______ ____
ROOT
ATOM      1  C   UNL     1      22.806   6.692  49.847  0.00  0.00    +0.000 C 
ATOM      2  C   UNL     1      21.489   6.259  50.495  0.00  0.00    +0.000 C 
ATOM      3  C   UNL     1      21.885   5.576  51.796  0.00  0.00    +0.000 C 
ATOM      4  N   UNL     1      23.243   5.131  51.578  0.00  0.00    +0.000 N 
ATOM      5  C   UNL     1      23.699   3.900  51.969  0.00  0.00    +0.000 A 
ATOM      6  N   UNL     1      25.012   3.641  51.797  0.00  0.00    +0.000 NA
ATOM      7  C   UNL     1      25.548   2.437  52.150  0.00  0.00    +0.000 A 
ATOM      8  C   UNL     1      24.671   1.473  52.666  0.00  0.00    +0.000 A 
ATOM      9  N   UNL     1      24.859   0.164  53.061  0.00  0.00    +0.000 NA
ATOM     10  C   UNL     1      23.653  -0.261  53.378  0.00  0.00    +0.000 A 
ATOM     11  N   UNL     1      22.701   0.712  53.206  0.00  0.00    +0.000 N 
ATOM     12  C   UNL     1      23.344   1.839  52.771  0.00  0.00    +0.000 A 
ATOM     13  N   UNL     1      22.809   3.026  52.466  0.00  0.00    +0.000 NA
ATOM     14  C   UNL     1      23.919   5.853  50.513  0.00  0.00    +0.000 C 
ENDROOT
BRANCH   1  17
ATOM     15  C   UNL     1      23.566   7.221  47.428  0.00  0.00    +0.000 C 
ATOM     16  O   UNL     1      23.307   6.998  46.247  0.00  0.00    +0.000 OA
ATOM     17  N   UNL     1      22.772   6.665  48.385  0.00  0.00    +0.000 N 
ATOM     18  H   UNL     1      22.025   6.139  48.019  0.00  0.00    +0.000 HD
BRANCH  15  20
ATOM     19  C   UNL     1      25.944   7.804  47.353  0.00  0.00    +0.000 C 
ATOM     20  C   UNL     1      24.715   8.066  47.823  0.00  0.00    +0.000 C 
ENDBRANCH  15  20
ENDBRANCH   1  17
BRANCH  11  21
ATOM     21  C   UNL     1      21.269   0.535  53.396  0.00  0.00    +0.000 C 
ATOM     22  C   UNL     1      20.543   0.243  52.083  0.00  0.00    +0.000 C 
ATOM     23  C   UNL     1      20.960  -0.521  54.461  0.00  0.00    +0.000 C 
ENDBRANCH  11  21
BRANCH   7  24
ATOM     24  N   UNL     1      26.906   2.123  51.934  0.00  0.00    +0.000 N 
ATOM     25  H   UNL     1      27.256   2.305  51.032  0.00  0.00    +0.000 HD
BRANCH  24  26
ATOM     26  C   UNL     1      27.780   1.601  52.819  0.00  0.00    +0.000 A 
ATOM     27  C   UNL     1      28.443   2.205  53.906  0.00  0.00    +0.000 A 
ATOM     28  N   UNL     1      29.314   1.377  54.493  0.00  0.00    +0.000 NA
ATOM     29  N   UNL     1      29.210   0.251  53.762  0.00  0.00    +0.000 N 
ATOM     30  C   UNL     1      30.132  -0.831  54.008  0.00  0.00    +0.000 C 
ATOM     31  C   UNL     1      28.252   0.312  52.791  0.00  0.00    +0.000 A 
ENDBRANCH  24  26
ENDBRANCH   7  24
TORSDOF 5
ENDMDL
MODEL 7
REMARK VINA RESULT:    -7.540      2.581      5.777
REMARK INTER + INTRA:         -10.544
REMARK INTER:                 -10.461
REMARK INTRA:                  -0.082
REMARK UNBOUND:                -0.800
REMARK  Name = 
REMARK  8 active torsions:
REMARK  status: ('A' for Active; 'I' for Inactive)
REMARK    1  A    between atoms: C_2  and  C_3
REMARK    2  A    between atoms: N_5  and  C_6
REMARK    3  A    between atoms: C_12  and  N_13
REMARK    4  A    between atoms: N_13  and  C_14
REMARK    5  A    between atoms: N_17  and  C_18
REMARK    6  A    between atoms: N_23  and  C_24
REMARK    7  A    between atoms: C_24  and  C_25
REMARK    8  A    between atoms: C_24  and  C_26
REMARK                            x       y       z     vdW  Elec       q    Type
REMARK                         _______ _______ _______ _____ _____    ______ ____
ROOT
ATOM      1  C   UNL     1      23.919   7.665  50.275  0.00  0.00    +0.000 C 
ATOM      2  C   UNL     1      22.533   7.276  49.754  0.00  0.00    +0.000 C 
ATOM      3  C   UNL     1      21.923   6.406  50.844  0.00  0.00    +0.000 C 
ATOM      4  N   UNL     1      23.057   5.872  51.565  0.00  0.00    +0.000 N 
ATOM      5  C   UNL     1      23.137   4.566  51.971  0.00  0.00    +0.000 A 
ATOM      6  N   UNL     1      24.202   4.213  52.722  0.00  0.00    +0.000 NA
ATOM      7  C   UNL     1      24.365   2.933  53.161  0.00  0.00    +0.000 A 
ATOM      8  C   UNL     1      23.398   1.995  52.774  0.00  0.00    +0.000 A 
ATOM      9  N   UNL     1      23.284   0.636  52.986  0.00  0.00    +0.000 NA
ATOM     10  C   UNL     1      22.210   0.285  52.310  0.00  0.00    +0.000 A 
ATOM     11  N   UNL     1      21.627   1.353  51.676  0.00  0.00    +0.000 N 
ATOM     12  C   UNL     1      22.367   2.462  51.983  0.00  0.00    +0.000 A 
ATOM     13  N   UNL     1      22.171   3.721  51.574  0.00  0.00    +0.000 NA
ATOM     14  C   UNL     1      24.268   6.655  51.390  0.00  0.00    +0.000 C 
ENDROOT
BRANCH   1  17
ATOM     15  C   UNL     1      25.717   6.935  48.560  0.00  0.00    +0.000 C 
ATOM     16  O   UNL     1      26.456   7.358  47.671  0.00  0.00    +0.000 OA
ATOM     17  N   UNL     1      24.916   7.820  49.216  0.00  0.00    +0.000 N 
ATOM     18  H   UNL     1      25.031   8.751  48.918  0.00  0.00    +0.000 HD
BRANCH  15  20
ATOM     19  C   UNL     1      26.816   4.788  48.983  0.00  0.00    +0.000 C 
ATOM     20  C   UNL     1      25.681   5.500  48.918  0.00  0.00    +0.000 C 
ENDBRANCH  15  20
ENDBRANCH   1  17
BRANCH  11  21
ATOM     21  C   UNL     1      20.474   1.282  50.791  0.00  0.00    +0.000 C 
ATOM     22  C   UNL     1      20.871   0.990  49.344  0.00  0.00    +0.000 C 
ATOM     23  C   UNL     1      19.422   0.294  51.301  0.00  0.00    +0.000 C 
ENDBRANCH  11  21
BRANCH   7  24
ATOM     24  N   UNL     1      25.493   2.527  53.903  0.00  0.00    +0.000 N 
ATOM     25  H   UNL     1      25.569   2.893  54.814  0.00  0.00    +0.000 HD
BRANCH  24  26
ATOM     26  C   UNL     1      26.481   1.697  53.509  0.00  0.00    +0.000 A 
ATOM     27  C   UNL     1      26.419   0.484  52.797  0.00  0.00    +0.000 A 
ATOM     28  N   UNL     1      27.617  -0.100  52.682  0.00  0.00    +0.000 NA
ATOM     29  N   UNL     1      28.436   0.744  53.339  0.00  0.00    +0.000 N 
ATOM     30  C   UNL     1      29.807   0.356  53.564  0.00  0.00    +0.000 C 
ATOM     31  C   UNL     1      27.814   1.871  53.793  0.00  0.00    +0.000 A 
ENDBRANCH  24  26
ENDBRANCH   7  24
TORSDOF 5
ENDMDL
MODEL 8
REMARK VINA RESULT:    -7.495      3.298      6.749
REMARK INTER + INTRA:         -10.485
REMARK INTER:                  -9.672
REMARK INTRA:                  -0.813
REMARK UNBOUND:                -0.800
REMARK  Name = 
REMARK  8 active torsions:
REMARK  status: ('A' for Active; 'I' for Inactive)
REMARK    1  A    between atoms: C_2  and  C_3
REMARK    2  A    between atoms: N_5  and  C_6
REMARK    3  A    between atoms: C_12  and  N_13
REMARK    4  A    between atoms: N_13  and  C_14
REMARK    5  A    between atoms: N_17  and  C_18
REMARK    6  A    between atoms: N_23  and  C_24
REMARK    7  A    between atoms: C_24  and  C_25
REMARK    8  A    between atoms: C_24  and  C_26
REMARK                            x       y       z     vdW  Elec       q    Type
REMARK                         _______ _______ _______ _____ _____    ______ ____
ROOT
ATOM      1  C   UNL     1      18.712   2.635  49.626  0.00  0.00    +0.000 C 
ATOM      2  C   UNL     1      18.911   1.189  50.087  0.00  0.00    +0.000 C 
ATOM      3  C   UNL     1      19.565   1.290  51.458  0.00  0.00    +0.000 C 
ATOM      4  N   UNL     1      20.212   2.583  51.462  0.00  0.00    +0.000 N 
ATOM      5  C   UNL     1      21.469   2.788  51.963  0.00  0.00    +0.000 A 
ATOM      6  N   UNL     1      21.925   4.058  51.999  0.00  0.00    +0.000 NA
ATOM      7  C   UNL     1      23.169   4.351  52.474  0.00  0.00    +0.000 A 
ATOM      8  C   UNL     1      23.964   3.275  52.892  0.00  0.00    +0.000 A 
ATOM      9  N   UNL     1      25.260   3.205  53.361  0.00  0.00    +0.000 NA
ATOM     10  C   UNL     1      25.488   1.916  53.511  0.00  0.00    +0.000 A 
ATOM     11  N   UNL     1      24.400   1.156  53.162  0.00  0.00    +0.000 N 
ATOM     12  C   UNL     1      23.406   2.017  52.784  0.00  0.00    +0.000 A 
ATOM     13  N   UNL     1      22.175   1.715  52.356  0.00  0.00    +0.000 NA
ATOM     14  C   UNL     1      19.660   3.503  50.482  0.00  0.00    +0.000 C 
ENDROOT
BRANCH   1  17
ATOM     15  C   UNL     1      19.886   2.938  47.337  0.00  0.00    +0.000 C 
ATOM     16  O   UNL     1      19.673   3.037  46.129  0.00  0.00    +0.000 OA
ATOM     17  N   UNL     1      18.822   2.804  48.177  0.00  0.00    +0.000 N 
ATOM     18  H   UNL     1      17.953   2.826  47.717  0.00  0.00    +0.000 HD
BRANCH  15  20
ATOM     19  C   UNL     1      21.949   1.812  48.027  0.00  0.00    +0.000 C 
ATOM     20  C   UNL     1      21.260   2.955  47.884  0.00  0.00    +0.000 C 
ENDBRANCH  15  20
ENDBRANCH   1  17
BRANCH  11  21
ATOM     21  C   UNL     1      24.359  -0.298  53.144  0.00  0.00    +0.000 C 
ATOM     22  C   UNL     1      25.757  -0.917  53.138  0.00  0.00    +0.000 C 
ATOM     23  C   UNL     1      23.496  -0.860  54.276  0.00  0.00    +0.000 C 
ENDBRANCH  11  21
BRANCH   7  24
ATOM     24  N   UNL     1      23.687   5.662  52.476  0.00  0.00    +0.000 N 
ATOM     25  H   UNL     1      23.765   6.098  53.355  0.00  0.00    +0.000 HD
BRANCH  24  26
ATOM     26  C   UNL     1      24.087   6.390  51.412  0.00  0.00    +0.000 A 
ATOM     27  C   UNL     1      23.685   7.670  50.984  0.00  0.00    +0.000 A 
ATOM     28  N   UNL     1      24.243   8.015  49.819  0.00  0.00    +0.000 NA
ATOM     29  N   UNL     1      24.989   6.939  49.503  0.00  0.00    +0.000 N 
ATOM     30  C   UNL     1      25.624   6.882  48.210  0.00  0.00    +0.000 C 
ATOM     31  C   UNL     1      24.983   5.966  50.462  0.00  0.00    +0.000 A 
ENDBRANCH  24  26
ENDBRANCH   7  24
TORSDOF 5
ENDMDL
MODEL 9
REMARK VINA RESULT:    -7.427      3.093      8.404
REMARK INTER + INTRA:         -10.397
REMARK INTER:                  -9.691
REMARK INTRA:                  -0.707
REMARK UNBOUND:                -0.800
REMARK  Name = 
REMARK  8 active torsions:
REMARK  status: ('A' for Active; 'I' for Inactive)
REMARK    1  A    between atoms: C_2  and  C_3
REMARK    2  A    between atoms: N_5  and  C_6
REMARK    3  A    between atoms: C_12  and  N_13
REMARK    4  A    between atoms: N_13  and  C_14
REMARK    5  A    between atoms: N_17  and  C_18
REMARK    6  A    between atoms: N_23  and  C_24
REMARK    7  A    between atoms: C_24  and  C_25
REMARK    8  A    between atoms: C_24  and  C_26
REMARK                            x       y       z     vdW  Elec       q    Type
REMARK                         _______ _______ _______ _____ _____    ______ ____
ROOT
ATOM      1  C   UNL     1      26.379   2.591  50.976  0.00  0.00    +0.000 C 
ATOM      2  C   UNL     1      24.852   2.533  51.068  0.00  0.00    +0.000 C 
ATOM      3  C   UNL     1      24.346   3.261  49.830  0.00  0.00    +0.000 C 
ATOM      4  N   UNL     1      25.429   4.142  49.454  0.00  0.00    +0.000 N 
ATOM      5  C   UNL     1      25.235   5.438  49.060  0.00  0.00    +0.000 A 
ATOM      6  N   UNL     1      26.316   6.129  48.640  0.00  0.00    +0.000 NA
ATOM      7  C   UNL     1      26.215   7.428  48.238  0.00  0.00    +0.000 A 
ATOM      8  C   UNL     1      24.948   8.023  48.311  0.00  0.00    +0.000 A 
ATOM      9  N   UNL     1      24.506   9.303  48.045  0.00  0.00    +0.000 NA
ATOM     10  C   UNL     1      23.231   9.289  48.376  0.00  0.00    +0.000 A 
ATOM     11  N   UNL     1      22.833   8.060  48.839  0.00  0.00    +0.000 N 
ATOM     12  C   UNL     1      23.920   7.231  48.782  0.00  0.00    +0.000 A 
ATOM     13  N   UNL     1      23.994   5.946  49.144  0.00  0.00    +0.000 NA
ATOM     14  C   UNL     1      26.716   3.728  49.987  0.00  0.00    +0.000 C 
ENDROOT
BRANCH   1  17
ATOM     15  C   UNL     1      27.542   1.710  53.116  0.00  0.00    +0.000 C 
ATOM     16  O   UNL     1      28.080   2.072  54.161  0.00  0.00    +0.000 OA
ATOM     17  N   UNL     1      27.037   2.660  52.280  0.00  0.00    +0.000 N 
ATOM     18  H   UNL     1      27.136   3.578  52.623  0.00  0.00    +0.000 HD
BRANCH  15  20
ATOM     19  C   UNL     1      26.376  -0.443  53.131  0.00  0.00    +0.000 C 
ATOM     20  C   UNL     1      27.441   0.280  52.753  0.00  0.00    +0.000 C 
ENDBRANCH  15  20
ENDBRANCH   1  17
BRANCH  11  21
ATOM     21  C   UNL     1      21.509   7.741  49.353  0.00  0.00    +0.000 C 
ATOM     22  C   UNL     1      21.530   7.421  50.847  0.00  0.00    +0.000 C 
ATOM     23  C   UNL     1      20.489   8.833  49.022  0.00  0.00    +0.000 C 
ENDBRANCH  11  21
BRANCH   7  24
ATOM     24  N   UNL     1      27.336   8.186  47.844  0.00  0.00    +0.000 N 
ATOM     25  H   UNL     1      27.270   8.639  46.973  0.00  0.00    +0.000 HD
BRANCH  24  26
ATOM     26  C   UNL     1      28.490   8.362  48.521  0.00  0.00    +0.000 A 
ATOM     27  C   UNL     1      28.856   9.356  49.450  0.00  0.00    +0.000 A 
ATOM     28  N   UNL     1      30.132   9.248  49.834  0.00  0.00    +0.000 NA
ATOM     29  N   UNL     1      30.577   8.188  49.131  0.00  0.00    +0.000 N 
ATOM     30  C   UNL     1      31.981   7.862  49.169  0.00  0.00    +0.000 C 
ATOM     31  C   UNL     1      29.610   7.580  48.383  0.00  0.00    +0.000 A 
ENDBRANCH  24  26
ENDBRANCH   7  24
TORSDOF 5
ENDMDL
