REMARK  Name = 
REMARK  6 active torsions:
REMARK  status: ('A' for Active; 'I' for Inactive)
REMARK    1  A    between atoms: C_11  and  N_12
REMARK    2  A    between atoms: N_12  and  C_13
REMARK    3  A    between atoms: N_23  and  C_24
REMARK    4  A    between atoms: C_24  and  C_25
REMARK    5  A    between atoms: C_25  and  C_26
REMARK    6  A    between atoms: C_26  and  N_27
REMARK                            x       y       z     vdW  Elec       q    Type
REMARK                         _______ _______ _______ _____ _____    ______ ____
ROOT
ATOM      1  O   UNL     1       1.348   0.522  -0.547  0.00  0.00    +0.000 OA
ATOM      2  C   UNL     1       2.416   0.411   0.060  0.00  0.00    +0.000 C 
ATOM      3  C   UNL     1       3.390   1.574   0.204  0.00  0.00    +0.000 C 
ATOM      4  O   UNL     1       4.223   1.612   1.348  0.00  0.00    +0.000 OA
ATOM      5  C   UNL     1       4.611   0.379   1.794  0.00  0.00    +0.000 A 
ATOM      6  C   UNL     1       5.671   0.353   2.706  0.00  0.00    +0.000 A 
ATOM      7  C   UNL     1       6.194  -0.840   3.214  0.00  0.00    +0.000 A 
ATOM      8  N   UNL     1       7.238  -0.785   4.035  0.00  0.00    +0.000 NA
ATOM      9  C   UNL     1       7.743  -1.956   4.460  0.00  0.00    +0.000 A 
ATOM     10  N   UNL     1       7.331  -3.182   4.113  0.00  0.00    +0.000 NA
ATOM     11  C   UNL     1       6.249  -3.247   3.323  0.00  0.00    +0.000 A 
ATOM     12  C   UNL     1       5.610  -2.056   2.846  0.00  0.00    +0.000 A 
ATOM     13  C   UNL     1       4.466  -1.996   2.011  0.00  0.00    +0.000 A 
ATOM     14  C   UNL     1       4.021  -0.814   1.399  0.00  0.00    +0.000 A 
ATOM     15  N   UNL     1       2.972  -0.829   0.428  0.00  0.00    +0.000 N 
ENDROOT
BRANCH  11  16
ATOM     16  N   UNL     1       5.791  -4.513   2.866  0.00  0.00    +0.000 N 
ATOM     17  H   UNL     1       4.819  -4.641   2.947  0.00  0.00    +0.000 HD
BRANCH  16  18
ATOM     18  C   UNL     1       6.476  -5.622   2.318  0.00  0.00    +0.000 A 
ATOM     19  C   UNL     1       7.699  -6.128   2.774  0.00  0.00    +0.000 A 
ATOM     20  C   UNL     1       8.372  -7.152   2.076  0.00  0.00    +0.000 A 
ATOM     21  C   UNL     1       7.862  -7.640   0.874  0.00  0.00    +0.000 A 
ATOM     22  C   UNL     1       6.642  -7.161   0.429  0.00  0.00    +0.000 A 
ATOM     23  F   UNL     1       6.129  -7.617  -0.722  0.00  0.00    +0.000 F 
ATOM     24  C   UNL     1       5.944  -6.190   1.146  0.00  0.00    +0.000 A 
ENDBRANCH  16  18
ENDBRANCH  11  16
BRANCH  15  25
ATOM     25  C   UNL     1       3.143  -1.692  -0.747  0.00  0.00    +0.000 C 
BRANCH  25  26
ATOM     26  C   UNL     1       3.322  -3.194  -0.598  0.00  0.00    +0.000 C 
BRANCH  26  27
ATOM     27  C   UNL     1       2.178  -3.931   0.099  0.00  0.00    +0.000 C 
BRANCH  27  28
ATOM     28  N   UNL     1       0.913  -4.030  -0.595  0.00  0.00    +0.000 N 
ATOM     29  C   UNL     1       0.883  -4.768  -1.851  0.00  0.00    +0.000 C 
ATOM     30  C   UNL     1       0.742  -3.861  -3.073  0.00  0.00    +0.000 C 
ATOM     31  O   UNL     1      -0.456  -3.089  -2.969  0.00  0.00    +0.000 OA
ATOM     32  C   UNL     1      -0.395  -2.207  -1.841  0.00  0.00    +0.000 C 
ATOM     33  C   UNL     1      -0.025  -2.911  -0.516  0.00  0.00    +0.000 C 
ATOM     34  H   UNL     1       0.487  -4.685   0.061  0.00  0.00    +0.000 HD
ENDBRANCH  27  28
ENDBRANCH  26  27
ENDBRANCH  25  26
ENDBRANCH  15  25
TORSDOF 6
