REMARK  Name = 
REMARK  4 active torsions:
REMARK  status: ('A' for Active; 'I' for Inactive)
REMARK    1  A    between atoms: C_2  and  C_3
REMARK    2  A    between atoms: C_3  and  N_4
REMARK    3  A    between atoms: C_9  and  N_10
REMARK    4  A    between atoms: N_10  and  C_11
REMARK                            x       y       z     vdW  Elec       q    Type
REMARK                         _______ _______ _______ _____ _____    ______ ____
ROOT
ATOM      1  N   UNL     1       3.948  -0.610   1.778  0.00  0.00    +0.000 N 
ATOM      2  C   UNL     1       4.562  -0.550   3.106  0.00  0.00    +0.000 C 
ATOM      3  C   UNL     1       3.568  -1.595   3.471  0.00  0.00    +0.000 A 
ATOM      4  C   UNL     1       3.016  -2.413   4.419  0.00  0.00    +0.000 A 
ATOM      5  C   UNL     1       1.815  -3.095   4.073  0.00  0.00    +0.000 A 
ATOM      6  C   UNL     1       1.079  -3.913   4.952  0.00  0.00    +0.000 A 
ATOM      7  N   UNL     1      -0.038  -4.553   4.563  0.00  0.00    +0.000 NA
ATOM      8  C   UNL     1      -0.441  -4.366   3.300  0.00  0.00    +0.000 A 
ATOM      9  N   UNL     1       0.158  -3.599   2.388  0.00  0.00    +0.000 NA
ATOM     10  C   UNL     1       1.270  -2.971   2.767  0.00  0.00    +0.000 A 
ATOM     11  C   UNL     1       1.898  -2.155   1.833  0.00  0.00    +0.000 A 
ATOM     12  C   UNL     1       3.024  -1.502   2.225  0.00  0.00    +0.000 A 
ENDROOT
BRANCH   6  13
ATOM     13  N   UNL     1       1.508  -4.038   6.294  0.00  0.00    +0.000 N 
ATOM     14  H   UNL     1       1.991  -3.261   6.658  0.00  0.00    +0.000 HD
BRANCH  13  15
ATOM     15  C   UNL     1       1.340  -5.119   7.184  0.00  0.00    +0.000 A 
ATOM     16  C   UNL     1       1.693  -4.950   8.533  0.00  0.00    +0.000 A 
ATOM     17  C   UNL     1       1.752  -6.041   9.407  0.00  0.00    +0.000 A 
ATOM     18  C   UNL     1       1.466  -7.322   8.942  0.00  0.00    +0.000 A 
ATOM     19  C   UNL     1       1.093  -7.499   7.613  0.00  0.00    +0.000 A 
ATOM     20 BR   UNL     1       0.724  -9.236   6.963  0.00  0.00    +0.000 Br
ATOM     21  C   UNL     1       1.031  -6.411   6.742  0.00  0.00    +0.000 A 
ENDBRANCH  13  15
ENDBRANCH   6  13
BRANCH   1  22
ATOM     22  C   UNL     1       3.369   0.593   1.166  0.00  0.00    +0.000 C 
BRANCH  22  24
ATOM     23  O   UNL     1       4.241   2.785   1.580  0.00  0.00    +0.000 OA
ATOM     24  C   UNL     1       4.406   1.709   0.996  0.00  0.00    +0.000 C 
ATOM     25  N   UNL     1       5.487   1.503   0.156  0.00  0.00    +0.000 N 
ATOM     26  C   UNL     1       6.521   2.532   0.034  0.00  0.00    +0.000 C 
ATOM     27  C   UNL     1       6.846   2.794  -1.441  0.00  0.00    +0.000 C 
ATOM     28  O   UNL     1       7.196   1.576  -2.119  0.00  0.00    +0.000 OA
ATOM     29  C   UNL     1       6.120   0.626  -2.049  0.00  0.00    +0.000 C 
ATOM     30  C   UNL     1       5.780   0.277  -0.595  0.00  0.00    +0.000 C 
ENDBRANCH  22  24
ENDBRANCH   1  22
TORSDOF 4
