MODEL 1
REMARK VINA RESULT:    -8.683      0.000      0.000
REMARK INTER + INTRA:         -13.123
REMARK INTER:                 -11.729
REMARK INTRA:                  -1.394
REMARK UNBOUND:                -1.394
REMARK  Name = 
REMARK  6 active torsions:
REMARK  status: ('A' for Active; 'I' for Inactive)
REMARK    1  A    between atoms: C_6  and  N_7
REMARK    2  A    between atoms: C_15  and  N_16
REMARK    3  A    between atoms: N_16  and  N_17
REMARK    4  A    between atoms: N_18  and  C_19
REMARK    5  A    between atoms: C_19  and  C_20
REMARK    6  A    between atoms: C_20  and  N_21
REMARK                            x       y       z     vdW  Elec       q    Type
REMARK                         _______ _______ _______ _____ _____    ______ ____
ROOT
ATOM      1  N   UNL     1      24.596  -0.267  52.515  0.00  0.00    +0.000 N 
ATOM      2  C   UNL     1      23.555  -0.646  53.393  0.00  0.00    +0.000 A 
ATOM      3  N   UNL     1      23.872  -1.101  54.618  0.00  0.00    +0.000 NA
ATOM      4  C   UNL     1      22.852  -1.423  55.416  0.00  0.00    +0.000 A 
ATOM      5  N   UNL     1      21.550  -1.324  55.119  0.00  0.00    +0.000 NA
ATOM      6  C   UNL     1      21.247  -0.832  53.910  0.00  0.00    +0.000 A 
ATOM      7  C   UNL     1      19.920  -0.585  53.585  0.00  0.00    +0.000 A 
ATOM      8  C   UNL     1      19.560   0.055  52.389  0.00  0.00    +0.000 A 
ATOM      9  C   UNL     1      20.532   0.413  51.456  0.00  0.00    +0.000 A 
ATOM     10  C   UNL     1      21.855   0.053  51.719  0.00  0.00    +0.000 A 
ATOM     11  C   UNL     1      22.228  -0.500  52.969  0.00  0.00    +0.000 A 
ATOM     12  H   UNL     1      24.487  -0.529  51.573  0.00  0.00    +0.000 HD
ENDROOT
BRANCH   1  18
ATOM     13 BR   UNL     1      29.796  -0.381  53.565  0.00  0.00    +0.000 Br
ATOM     14  C   UNL     1      28.140   0.514  53.367  0.00  0.00    +0.000 A 
ATOM     15  C   UNL     1      28.057   1.875  53.644  0.00  0.00    +0.000 A 
ATOM     16  C   UNL     1      26.828   2.521  53.535  0.00  0.00    +0.000 A 
ATOM     17  C   UNL     1      25.693   1.804  53.146  0.00  0.00    +0.000 A 
ATOM     18  C   UNL     1      25.771   0.440  52.831  0.00  0.00    +0.000 A 
ATOM     19  C   UNL     1      27.011  -0.203  52.966  0.00  0.00    +0.000 A 
ENDBRANCH   1  18
BRANCH   9  20
ATOM     20  N   UNL     1      20.235   1.140  50.287  0.00  0.00    +0.000 N 
ATOM     21  H   UNL     1      19.366   1.051  49.832  0.00  0.00    +0.000 HD
BRANCH  20  22
ATOM     22  N   UNL     1      21.200   1.964  49.817  0.00  0.00    +0.000 NA
ATOM     23  N   UNL     1      21.540   1.484  48.716  0.00  0.00    +0.000 NA
BRANCH  23  24
ATOM     24  C   UNL     1      22.526   2.322  48.001  0.00  0.00    +0.000 C 
BRANCH  24  25
ATOM     25  C   UNL     1      22.924   3.525  48.876  0.00  0.00    +0.000 C 
BRANCH  25  26
ATOM     26  N   UNL     1      23.831   3.215  50.002  0.00  0.00    +0.000 N 
ATOM     27  C   UNL     1      23.572   4.113  51.156  0.00  0.00    +0.000 C 
ATOM     28  C   UNL     1      24.067   5.557  50.944  0.00  0.00    +0.000 C 
ATOM     29  O   UNL     1      25.460   5.593  50.605  0.00  0.00    +0.000 OA
ATOM     30  C   UNL     1      25.742   4.777  49.462  0.00  0.00    +0.000 C 
ATOM     31  C   UNL     1      25.270   3.330  49.675  0.00  0.00    +0.000 C 
ATOM     32  H   UNL     1      23.630   2.239  50.226  0.00  0.00    +0.000 HD
ENDBRANCH  25  26
ENDBRANCH  24  25
ENDBRANCH  23  24
ENDBRANCH  20  22
ENDBRANCH   9  20
TORSDOF 6
ENDMDL
MODEL 2
REMARK VINA RESULT:    -8.083      3.290      5.780
REMARK INTER + INTRA:         -12.312
REMARK INTER:                 -10.756
REMARK INTRA:                  -1.557
REMARK UNBOUND:                -1.394
REMARK  Name = 
REMARK  6 active torsions:
REMARK  status: ('A' for Active; 'I' for Inactive)
REMARK    1  A    between atoms: C_6  and  N_7
REMARK    2  A    between atoms: C_15  and  N_16
REMARK    3  A    between atoms: N_16  and  N_17
REMARK    4  A    between atoms: N_18  and  C_19
REMARK    5  A    between atoms: C_19  and  C_20
REMARK    6  A    between atoms: C_20  and  N_21
REMARK                            x       y       z     vdW  Elec       q    Type
REMARK                         _______ _______ _______ _____ _____    ______ ____
ROOT
ATOM      1  N   UNL     1      21.794   2.071  52.390  0.00  0.00    +0.000 N 
ATOM      2  C   UNL     1      22.344   0.973  53.089  0.00  0.00    +0.000 A 
ATOM      3  N   UNL     1      21.517   0.139  53.743  0.00  0.00    +0.000 NA
ATOM      4  C   UNL     1      22.084  -0.896  54.367  0.00  0.00    +0.000 A 
ATOM      5  N   UNL     1      23.391  -1.188  54.391  0.00  0.00    +0.000 NA
ATOM      6  C   UNL     1      24.200  -0.372  53.702  0.00  0.00    +0.000 A 
ATOM      7  C   UNL     1      25.547  -0.687  53.582  0.00  0.00    +0.000 A 
ATOM      8  C   UNL     1      26.408   0.058  52.761  0.00  0.00    +0.000 A 
ATOM      9  C   UNL     1      25.943   1.182  52.080  0.00  0.00    +0.000 A 
ATOM     10  C   UNL     1      24.622   1.578  52.298  0.00  0.00    +0.000 A 
ATOM     11  C   UNL     1      23.730   0.770  53.045  0.00  0.00    +0.000 A 
ATOM     12  H   UNL     1      22.286   2.921  52.459  0.00  0.00    +0.000 HD
ENDROOT
BRANCH   1  18
ATOM     13 BR   UNL     1      16.871   3.916  51.668  0.00  0.00    +0.000 Br
ATOM     14  C   UNL     1      18.348   2.833  51.190  0.00  0.00    +0.000 A 
ATOM     15  C   UNL     1      18.240   1.962  50.111  0.00  0.00    +0.000 A 
ATOM     16  C   UNL     1      19.315   1.138  49.786  0.00  0.00    +0.000 A 
ATOM     17  C   UNL     1      20.492   1.195  50.539  0.00  0.00    +0.000 A 
ATOM     18  C   UNL     1      20.625   2.093  51.607  0.00  0.00    +0.000 A 
ATOM     19  C   UNL     1      19.526   2.901  51.936  0.00  0.00    +0.000 A 
ENDBRANCH   1  18
BRANCH   9  20
ATOM     20  N   UNL     1      26.739   1.906  51.172  0.00  0.00    +0.000 N 
ATOM     21  H   UNL     1      27.486   1.482  50.690  0.00  0.00    +0.000 HD
BRANCH  20  22
ATOM     22  N   UNL     1      26.431   3.212  50.994  0.00  0.00    +0.000 NA
ATOM     23  N   UNL     1      26.694   3.456  49.799  0.00  0.00    +0.000 NA
BRANCH  23  24
ATOM     24  C   UNL     1      26.319   4.827  49.394  0.00  0.00    +0.000 C 
BRANCH  24  25
ATOM     25  C   UNL     1      24.850   5.099  49.765  0.00  0.00    +0.000 C 
BRANCH  25  26
ATOM     26  N   UNL     1      24.642   5.796  51.054  0.00  0.00    +0.000 N 
ATOM     27  C   UNL     1      23.485   5.223  51.787  0.00  0.00    +0.000 C 
ATOM     28  C   UNL     1      22.118   5.596  51.182  0.00  0.00    +0.000 C 
ATOM     29  O   UNL     1      21.962   7.016  51.065  0.00  0.00    +0.000 OA
ATOM     30  C   UNL     1      23.035   7.600  50.317  0.00  0.00    +0.000 C 
ATOM     31  C   UNL     1      24.401   7.250  50.928  0.00  0.00    +0.000 C 
ATOM     32  H   UNL     1      25.519   5.659  51.558  0.00  0.00    +0.000 HD
ENDBRANCH  25  26
ENDBRANCH  24  25
ENDBRANCH  23  24
ENDBRANCH  20  22
ENDBRANCH   9  20
TORSDOF 6
ENDMDL
MODEL 3
REMARK VINA RESULT:    -7.914      2.799      4.615
REMARK INTER + INTRA:         -12.085
REMARK INTER:                 -10.621
REMARK INTRA:                  -1.464
REMARK UNBOUND:                -1.394
REMARK  Name = 
REMARK  6 active torsions:
REMARK  status: ('A' for Active; 'I' for Inactive)
REMARK    1  A    between atoms: C_6  and  N_7
REMARK    2  A    between atoms: C_15  and  N_16
REMARK    3  A    between atoms: N_16  and  N_17
REMARK    4  A    between atoms: N_18  and  C_19
REMARK    5  A    between atoms: C_19  and  C_20
REMARK    6  A    between atoms: C_20  and  N_21
REMARK                            x       y       z     vdW  Elec       q    Type
REMARK                         _______ _______ _______ _____ _____    ______ ____
ROOT
ATOM      1  N   UNL     1      24.373   2.207  50.693  0.00  0.00    +0.000 N 
ATOM      2  C   UNL     1      24.740   1.338  51.746  0.00  0.00    +0.000 A 
ATOM      3  N   UNL     1      26.045   1.155  52.013  0.00  0.00    +0.000 NA
ATOM      4  C   UNL     1      26.337   0.345  53.032  0.00  0.00    +0.000 A 
ATOM      5  N   UNL     1      25.458  -0.289  53.818  0.00  0.00    +0.000 NA
ATOM      6  C   UNL     1      24.161  -0.067  53.568  0.00  0.00    +0.000 A 
ATOM      7  C   UNL     1      23.200  -0.592  54.422  0.00  0.00    +0.000 A 
ATOM      8  C   UNL     1      21.840  -0.277  54.283  0.00  0.00    +0.000 A 
ATOM      9  C   UNL     1      21.402   0.535  53.238  0.00  0.00    +0.000 A 
ATOM     10  C   UNL     1      22.346   0.961  52.303  0.00  0.00    +0.000 A 
ATOM     11  C   UNL     1      23.730   0.727  52.500  0.00  0.00    +0.000 A 
ATOM     12  H   UNL     1      23.628   1.909  50.124  0.00  0.00    +0.000 HD
ENDROOT
BRANCH   1  18
ATOM     13 BR   UNL     1      24.075   7.503  50.805  0.00  0.00    +0.000 Br
ATOM     14  C   UNL     1      24.907   5.876  50.312  0.00  0.00    +0.000 A 
ATOM     15  C   UNL     1      26.048   5.901  49.517  0.00  0.00    +0.000 A 
ATOM     16  C   UNL     1      26.634   4.701  49.124  0.00  0.00    +0.000 A 
ATOM     17  C   UNL     1      26.079   3.484  49.532  0.00  0.00    +0.000 A 
ATOM     18  C   UNL     1      24.950   3.447  50.362  0.00  0.00    +0.000 A 
ATOM     19  C   UNL     1      24.357   4.664  50.733  0.00  0.00    +0.000 A 
ENDBRANCH   1  18
BRANCH   9  20
ATOM     20  N   UNL     1      20.065   0.957  53.110  0.00  0.00    +0.000 N 
ATOM     21  H   UNL     1      19.392   0.753  53.799  0.00  0.00    +0.000 HD
BRANCH  20  22
ATOM     22  N   UNL     1      19.748   1.656  51.994  0.00  0.00    +0.000 NA
ATOM     23  N   UNL     1      19.601   2.836  52.371  0.00  0.00    +0.000 NA
BRANCH  23  24
ATOM     24  C   UNL     1      19.350   3.771  51.255  0.00  0.00    +0.000 C 
BRANCH  24  25
ATOM     25  C   UNL     1      20.403   3.566  50.152  0.00  0.00    +0.000 C 
BRANCH  25  26
ATOM     26  N   UNL     1      20.032   2.599  49.096  0.00  0.00    +0.000 N 
ATOM     27  C   UNL     1      21.202   1.777  48.692  0.00  0.00    +0.000 C 
ATOM     28  C   UNL     1      22.239   2.544  47.849  0.00  0.00    +0.000 C 
ATOM     29  O   UNL     1      21.642   3.140  46.689  0.00  0.00    +0.000 OA
ATOM     30  C   UNL     1      20.539   3.982  47.044  0.00  0.00    +0.000 C 
ATOM     31  C   UNL     1      19.490   3.218  47.866  0.00  0.00    +0.000 C 
ATOM     32  H   UNL     1      19.297   2.032  49.521  0.00  0.00    +0.000 HD
ENDBRANCH  25  26
ENDBRANCH  24  25
ENDBRANCH  23  24
ENDBRANCH  20  22
ENDBRANCH   9  20
TORSDOF 6
ENDMDL
MODEL 4
REMARK VINA RESULT:    -7.796      3.402      4.852
REMARK INTER + INTRA:         -11.925
REMARK INTER:                 -10.772
REMARK INTRA:                  -1.152
REMARK UNBOUND:                -1.394
REMARK  Name = 
REMARK  6 active torsions:
REMARK  status: ('A' for Active; 'I' for Inactive)
REMARK    1  A    between atoms: C_6  and  N_7
REMARK    2  A    between atoms: C_15  and  N_16
REMARK    3  A    between atoms: N_16  and  N_17
REMARK    4  A    between atoms: N_18  and  C_19
REMARK    5  A    between atoms: C_19  and  C_20
REMARK    6  A    between atoms: C_20  and  N_21
REMARK                            x       y       z     vdW  Elec       q    Type
REMARK                         _______ _______ _______ _____ _____    ______ ____
ROOT
ATOM      1  N   UNL     1      24.695  -0.246  52.568  0.00  0.00    +0.000 N 
ATOM      2  C   UNL     1      23.615  -0.576  53.417  0.00  0.00    +0.000 A 
ATOM      3  N   UNL     1      23.875  -1.114  54.621  0.00  0.00    +0.000 NA
ATOM      4  C   UNL     1      22.822  -1.385  55.394  0.00  0.00    +0.000 A 
ATOM      5  N   UNL     1      21.537  -1.161  55.091  0.00  0.00    +0.000 NA
ATOM      6  C   UNL     1      21.293  -0.588  53.905  0.00  0.00    +0.000 A 
ATOM      7  C   UNL     1      19.996  -0.213  53.580  0.00  0.00    +0.000 A 
ATOM      8  C   UNL     1      19.707   0.511  52.414  0.00  0.00    +0.000 A 
ATOM      9  C   UNL     1      20.718   0.829  51.507  0.00  0.00    +0.000 A 
ATOM     10  C   UNL     1      22.001   0.345  51.765  0.00  0.00    +0.000 A 
ATOM     11  C   UNL     1      22.310  -0.297  52.989  0.00  0.00    +0.000 A 
ATOM     12  H   UNL     1      24.576  -0.452  51.613  0.00  0.00    +0.000 HD
ENDROOT
BRANCH   1  18
ATOM     13 BR   UNL     1      29.859  -0.851  53.631  0.00  0.00    +0.000 Br
ATOM     14  C   UNL     1      28.284   0.188  53.477  0.00  0.00    +0.000 A 
ATOM     15  C   UNL     1      28.311   1.534  53.829  0.00  0.00    +0.000 A 
ATOM     16  C   UNL     1      27.142   2.285  53.752  0.00  0.00    +0.000 A 
ATOM     17  C   UNL     1      25.954   1.688  53.319  0.00  0.00    +0.000 A 
ATOM     18  C   UNL     1      25.922   0.342  52.928  0.00  0.00    +0.000 A 
ATOM     19  C   UNL     1      27.103  -0.408  53.031  0.00  0.00    +0.000 A 
ENDBRANCH   1  18
BRANCH   9  20
ATOM     20  N   UNL     1      20.498   1.633  50.372  0.00  0.00    +0.000 N 
ATOM     21  H   UNL     1      21.199   1.769  49.694  0.00  0.00    +0.000 HD
BRANCH  20  22
ATOM     22  N   UNL     1      19.279   2.211  50.259  0.00  0.00    +0.000 NA
ATOM     23  N   UNL     1      19.490   3.440  50.302  0.00  0.00    +0.000 NA
BRANCH  23  24
ATOM     24  C   UNL     1      18.267   4.242  50.087  0.00  0.00    +0.000 C 
BRANCH  24  25
ATOM     25  C   UNL     1      17.021   3.354  50.256  0.00  0.00    +0.000 C 
BRANCH  25  26
ATOM     26  N   UNL     1      16.676   3.009  51.653  0.00  0.00    +0.000 N 
ATOM     27  C   UNL     1      16.013   1.683  51.724  0.00  0.00    +0.000 C 
ATOM     28  C   UNL     1      14.565   1.683  51.197  0.00  0.00    +0.000 C 
ATOM     29  O   UNL     1      13.759   2.664  51.865  0.00  0.00    +0.000 OA
ATOM     30  C   UNL     1      14.342   3.969  51.773  0.00  0.00    +0.000 C 
ATOM     31  C   UNL     1      15.779   3.981  52.317  0.00  0.00    +0.000 C 
ATOM     32  H   UNL     1      17.573   3.014  52.142  0.00  0.00    +0.000 HD
ENDBRANCH  25  26
ENDBRANCH  24  25
ENDBRANCH  23  24
ENDBRANCH  20  22
ENDBRANCH   9  20
TORSDOF 6
ENDMDL
MODEL 5
REMARK VINA RESULT:    -7.781      3.042      4.904
REMARK INTER + INTRA:         -11.904
REMARK INTER:                 -10.220
REMARK INTRA:                  -1.684
REMARK UNBOUND:                -1.394
REMARK  Name = 
REMARK  6 active torsions:
REMARK  status: ('A' for Active; 'I' for Inactive)
REMARK    1  A    between atoms: C_6  and  N_7
REMARK    2  A    between atoms: C_15  and  N_16
REMARK    3  A    between atoms: N_16  and  N_17
REMARK    4  A    between atoms: N_18  and  C_19
REMARK    5  A    between atoms: C_19  and  C_20
REMARK    6  A    between atoms: C_20  and  N_21
REMARK                            x       y       z     vdW  Elec       q    Type
REMARK                         _______ _______ _______ _____ _____    ______ ____
ROOT
ATOM      1  N   UNL     1      25.683   2.937  50.185  0.00  0.00    +0.000 N 
ATOM      2  C   UNL     1      25.946   2.268  51.403  0.00  0.00    +0.000 A 
ATOM      3  N   UNL     1      27.140   2.442  51.994  0.00  0.00    +0.000 NA
ATOM      4  C   UNL     1      27.330   1.808  53.153  0.00  0.00    +0.000 A 
ATOM      5  N   UNL     1      26.442   1.030  53.786  0.00  0.00    +0.000 NA
ATOM      6  C   UNL     1      25.242   0.896  53.206  0.00  0.00    +0.000 A 
ATOM      7  C   UNL     1      24.235   0.208  53.869  0.00  0.00    +0.000 A 
ATOM      8  C   UNL     1      22.925   0.156  53.369  0.00  0.00    +0.000 A 
ATOM      9  C   UNL     1      22.606   0.753  52.150  0.00  0.00    +0.000 A 
ATOM     10  C   UNL     1      23.641   1.336  51.419  0.00  0.00    +0.000 A 
ATOM     11  C   UNL     1      24.939   1.476  51.969  0.00  0.00    +0.000 A 
ATOM     12  H   UNL     1      25.202   2.419  49.501  0.00  0.00    +0.000 HD
ENDROOT
BRANCH   1  18
ATOM     13 BR   UNL     1      24.481   8.104  50.296  0.00  0.00    +0.000 Br
ATOM     14  C   UNL     1      25.567   6.641  49.785  0.00  0.00    +0.000 A 
ATOM     15  C   UNL     1      26.667   6.857  48.960  0.00  0.00    +0.000 A 
ATOM     16  C   UNL     1      27.441   5.773  48.554  0.00  0.00    +0.000 A 
ATOM     17  C   UNL     1      27.114   4.482  48.979  0.00  0.00    +0.000 A 
ATOM     18  C   UNL     1      26.029   4.255  49.838  0.00  0.00    +0.000 A 
ATOM     19  C   UNL     1      25.245   5.354  50.221  0.00  0.00    +0.000 A 
ENDBRANCH   1  18
BRANCH   9  20
ATOM     20  N   UNL     1      21.290   0.811  51.652  0.00  0.00    +0.000 N 
ATOM     21  H   UNL     1      20.690   0.032  51.690  0.00  0.00    +0.000 HD
BRANCH  20  22
ATOM     22  N   UNL     1      20.891   1.989  51.116  0.00  0.00    +0.000 NA
ATOM     23  N   UNL     1      20.052   2.450  51.916  0.00  0.00    +0.000 NA
BRANCH  23  24
ATOM     24  C   UNL     1      19.578   3.799  51.540  0.00  0.00    +0.000 C 
BRANCH  24  25
ATOM     25  C   UNL     1      20.059   4.146  50.120  0.00  0.00    +0.000 C 
BRANCH  25  26
ATOM     26  N   UNL     1      21.409   4.745  50.039  0.00  0.00    +0.000 N 
ATOM     27  C   UNL     1      21.455   6.050  50.747  0.00  0.00    +0.000 C 
ATOM     28  C   UNL     1      20.730   7.188  50.003  0.00  0.00    +0.000 C 
ATOM     29  O   UNL     1      21.225   7.345  48.666  0.00  0.00    +0.000 OA
ATOM     30  C   UNL     1      21.149   6.116  47.933  0.00  0.00    +0.000 C 
ATOM     31  C   UNL     1      21.888   4.982  48.659  0.00  0.00    +0.000 C 
ATOM     32  H   UNL     1      22.018   4.052  50.475  0.00  0.00    +0.000 HD
ENDBRANCH  25  26
ENDBRANCH  24  25
ENDBRANCH  23  24
ENDBRANCH  20  22
ENDBRANCH   9  20
TORSDOF 6
ENDMDL
MODEL 6
REMARK VINA RESULT:    -7.620      2.645      4.561
REMARK INTER + INTRA:         -11.687
REMARK INTER:                  -9.870
REMARK INTRA:                  -1.816
REMARK UNBOUND:                -1.394
REMARK  Name = 
REMARK  6 active torsions:
REMARK  status: ('A' for Active; 'I' for Inactive)
REMARK    1  A    between atoms: C_6  and  N_7
REMARK    2  A    between atoms: C_15  and  N_16
REMARK    3  A    between atoms: N_16  and  N_17
REMARK    4  A    between atoms: N_18  and  C_19
REMARK    5  A    between atoms: C_19  and  C_20
REMARK    6  A    between atoms: C_20  and  N_21
REMARK                            x       y       z     vdW  Elec       q    Type
REMARK                         _______ _______ _______ _____ _____    ______ ____
ROOT
ATOM      1  N   UNL     1      24.676   3.012  50.600  0.00  0.00    +0.000 N 
ATOM      2  C   UNL     1      25.163   2.202  51.651  0.00  0.00    +0.000 A 
ATOM      3  N   UNL     1      26.399   2.430  52.129  0.00  0.00    +0.000 NA
ATOM      4  C   UNL     1      26.802   1.653  53.136  0.00  0.00    +0.000 A 
ATOM      5  N   UNL     1      26.090   0.682  53.722  0.00  0.00    +0.000 NA
ATOM      6  C   UNL     1      24.846   0.491  53.263  0.00  0.00    +0.000 A 
ATOM      7  C   UNL     1      24.010  -0.413  53.907  0.00  0.00    +0.000 A 
ATOM      8  C   UNL     1      22.660  -0.550  53.553  0.00  0.00    +0.000 A 
ATOM      9  C   UNL     1      22.125   0.184  52.495  0.00  0.00    +0.000 A 
ATOM     10  C   UNL     1      22.990   0.998  51.762  0.00  0.00    +0.000 A 
ATOM     11  C   UNL     1      24.326   1.212  52.183  0.00  0.00    +0.000 A 
ATOM     12  H   UNL     1      24.168   2.551  49.895  0.00  0.00    +0.000 HD
ENDROOT
BRANCH   1  18
ATOM     13 BR   UNL     1      27.276   7.039  48.324  0.00  0.00    +0.000 Br
ATOM     14  C   UNL     1      25.974   6.329  49.500  0.00  0.00    +0.000 A 
ATOM     15  C   UNL     1      25.233   7.188  50.305  0.00  0.00    +0.000 A 
ATOM     16  C   UNL     1      24.305   6.659  51.197  0.00  0.00    +0.000 A 
ATOM     17  C   UNL     1      24.118   5.276  51.275  0.00  0.00    +0.000 A 
ATOM     18  C   UNL     1      24.834   4.402  50.444  0.00  0.00    +0.000 A 
ATOM     19  C   UNL     1      25.782   4.948  49.565  0.00  0.00    +0.000 A 
ENDBRANCH   1  18
BRANCH   9  20
ATOM     20  N   UNL     1      20.758   0.154  52.161  0.00  0.00    +0.000 N 
ATOM     21  H   UNL     1      20.074  -0.129  52.812  0.00  0.00    +0.000 HD
BRANCH  20  22
ATOM     22  N   UNL     1      20.427   0.529  50.903  0.00  0.00    +0.000 NA
ATOM     23  N   UNL     1      19.271   0.992  50.987  0.00  0.00    +0.000 NA
BRANCH  23  24
ATOM     24  C   UNL     1      18.779   1.553  49.712  0.00  0.00    +0.000 C 
BRANCH  24  25
ATOM     25  C   UNL     1      19.234   3.017  49.573  0.00  0.00    +0.000 C 
BRANCH  25  26
ATOM     26  N   UNL     1      20.609   3.298  50.041  0.00  0.00    +0.000 N 
ATOM     27  C   UNL     1      20.637   4.500  50.913  0.00  0.00    +0.000 C 
ATOM     28  C   UNL     1      20.453   5.826  50.151  0.00  0.00    +0.000 C 
ATOM     29  O   UNL     1      21.416   5.970  49.098  0.00  0.00    +0.000 OA
ATOM     30  C   UNL     1      21.382   4.851  48.204  0.00  0.00    +0.000 C 
ATOM     31  C   UNL     1      21.588   3.526  48.955  0.00  0.00    +0.000 C 
ATOM     32  H   UNL     1      20.880   2.454  50.546  0.00  0.00    +0.000 HD
ENDBRANCH  25  26
ENDBRANCH  24  25
ENDBRANCH  23  24
ENDBRANCH  20  22
ENDBRANCH   9  20
TORSDOF 6
ENDMDL
MODEL 7
REMARK VINA RESULT:    -7.586      2.162      2.599
REMARK INTER + INTRA:         -11.642
REMARK INTER:                 -10.527
REMARK INTRA:                  -1.114
REMARK UNBOUND:                -1.394
REMARK  Name = 
REMARK  6 active torsions:
REMARK  status: ('A' for Active; 'I' for Inactive)
REMARK    1  A    between atoms: C_6  and  N_7
REMARK    2  A    between atoms: C_15  and  N_16
REMARK    3  A    between atoms: N_16  and  N_17
REMARK    4  A    between atoms: N_18  and  C_19
REMARK    5  A    between atoms: C_19  and  C_20
REMARK    6  A    between atoms: C_20  and  N_21
REMARK                            x       y       z     vdW  Elec       q    Type
REMARK                         _______ _______ _______ _____ _____    ______ ____
ROOT
ATOM      1  N   UNL     1      25.289   0.843  52.088  0.00  0.00    +0.000 N 
ATOM      2  C   UNL     1      24.103   0.461  52.756  0.00  0.00    +0.000 A 
ATOM      3  N   UNL     1      24.151  -0.556  53.634  0.00  0.00    +0.000 NA
ATOM      4  C   UNL     1      23.010  -0.862  54.255  0.00  0.00    +0.000 A 
ATOM      5  N   UNL     1      21.833  -0.245  54.099  0.00  0.00    +0.000 NA
ATOM      6  C   UNL     1      21.807   0.793  53.252  0.00  0.00    +0.000 A 
ATOM      7  C   UNL     1      20.652   1.555  53.138  0.00  0.00    +0.000 A 
ATOM      8  C   UNL     1      20.615   2.729  52.370  0.00  0.00    +0.000 A 
ATOM      9  C   UNL     1      21.734   3.139  51.647  0.00  0.00    +0.000 A 
ATOM     10  C   UNL     1      22.857   2.310  51.656  0.00  0.00    +0.000 A 
ATOM     11  C   UNL     1      22.927   1.181  52.509  0.00  0.00    +0.000 A 
ATOM     12  H   UNL     1      25.196   1.068  51.134  0.00  0.00    +0.000 HD
ENDROOT
BRANCH   1  18
ATOM     13 BR   UNL     1      29.751  -1.605  53.588  0.00  0.00    +0.000 Br
ATOM     14  C   UNL     1      28.661  -0.071  53.387  0.00  0.00    +0.000 A 
ATOM     15  C   UNL     1      29.102   1.154  53.877  0.00  0.00    +0.000 A 
ATOM     16  C   UNL     1      28.280   2.272  53.762  0.00  0.00    +0.000 A 
ATOM     17  C   UNL     1      27.026   2.160  53.154  0.00  0.00    +0.000 A 
ATOM     18  C   UNL     1      26.585   0.938  52.626  0.00  0.00    +0.000 A 
ATOM     19  C   UNL     1      27.415  -0.184  52.768  0.00  0.00    +0.000 A 
ENDBRANCH   1  18
BRANCH   9  20
ATOM     20  N   UNL     1      21.781   4.355  50.939  0.00  0.00    +0.000 N 
ATOM     21  H   UNL     1      21.356   5.172  51.290  0.00  0.00    +0.000 HD
BRANCH  20  22
ATOM     22  N   UNL     1      22.434   4.350  49.754  0.00  0.00    +0.000 NA
ATOM     23  N   UNL     1      22.066   5.387  49.167  0.00  0.00    +0.000 NA
BRANCH  23  24
ATOM     24  C   UNL     1      22.766   5.602  47.883  0.00  0.00    +0.000 C 
BRANCH  24  25
ATOM     25  C   UNL     1      23.958   6.554  48.088  0.00  0.00    +0.000 C 
BRANCH  25  26
ATOM     26  N   UNL     1      24.223   6.941  49.492  0.00  0.00    +0.000 N 
ATOM     27  C   UNL     1      24.085   8.408  49.673  0.00  0.00    +0.000 C 
ATOM     28  C   UNL     1      25.242   9.222  49.062  0.00  0.00    +0.000 C 
ATOM     29  O   UNL     1      26.515   8.789  49.562  0.00  0.00    +0.000 OA
ATOM     30  C   UNL     1      26.706   7.385  49.357  0.00  0.00    +0.000 C 
ATOM     31  C   UNL     1      25.567   6.566  49.983  0.00  0.00    +0.000 C 
ATOM     32  H   UNL     1      23.528   6.423  50.030  0.00  0.00    +0.000 HD
ENDBRANCH  25  26
ENDBRANCH  24  25
ENDBRANCH  23  24
ENDBRANCH  20  22
ENDBRANCH   9  20
TORSDOF 6
ENDMDL
MODEL 8
REMARK VINA RESULT:    -7.417      3.663      6.099
REMARK INTER + INTRA:         -11.413
REMARK INTER:                 -10.709
REMARK INTRA:                  -0.704
REMARK UNBOUND:                -1.394
REMARK  Name = 
REMARK  6 active torsions:
REMARK  status: ('A' for Active; 'I' for Inactive)
REMARK    1  A    between atoms: C_6  and  N_7
REMARK    2  A    between atoms: C_15  and  N_16
REMARK    3  A    between atoms: N_16  and  N_17
REMARK    4  A    between atoms: N_18  and  C_19
REMARK    5  A    between atoms: C_19  and  C_20
REMARK    6  A    between atoms: C_20  and  N_21
REMARK                            x       y       z     vdW  Elec       q    Type
REMARK                         _______ _______ _______ _____ _____    ______ ____
ROOT
ATOM      1  N   UNL     1      21.844   2.027  52.650  0.00  0.00    +0.000 N 
ATOM      2  C   UNL     1      22.744   1.065  53.163  0.00  0.00    +0.000 A 
ATOM      3  N   UNL     1      22.251  -0.004  53.811  0.00  0.00    +0.000 NA
ATOM      4  C   UNL     1      23.142  -0.895  54.255  0.00  0.00    +0.000 A 
ATOM      5  N   UNL     1      24.470  -0.830  54.104  0.00  0.00    +0.000 NA
ATOM      6  C   UNL     1      24.945   0.221  53.422  0.00  0.00    +0.000 A 
ATOM      7  C   UNL     1      26.300   0.285  53.121  0.00  0.00    +0.000 A 
ATOM      8  C   UNL     1      26.825   1.291  52.295  0.00  0.00    +0.000 A 
ATOM      9  C   UNL     1      26.002   2.299  51.794  0.00  0.00    +0.000 A 
ATOM     10  C   UNL     1      24.666   2.312  52.197  0.00  0.00    +0.000 A 
ATOM     11  C   UNL     1      24.117   1.242  52.946  0.00  0.00    +0.000 A 
ATOM     12  H   UNL     1      22.108   2.970  52.756  0.00  0.00    +0.000 HD
ENDROOT
BRANCH   1  18
ATOM     13 BR   UNL     1      16.970   3.755  51.460  0.00  0.00    +0.000 Br
ATOM     14  C   UNL     1      18.347   2.457  51.433  0.00  0.00    +0.000 A 
ATOM     15  C   UNL     1      18.105   1.211  50.865  0.00  0.00    +0.000 A 
ATOM     16  C   UNL     1      19.107   0.245  50.882  0.00  0.00    +0.000 A 
ATOM     17  C   UNL     1      20.346   0.532  51.463  0.00  0.00    +0.000 A 
ATOM     18  C   UNL     1      20.614   1.796  52.008  0.00  0.00    +0.000 A 
ATOM     19  C   UNL     1      19.587   2.752  52.003  0.00  0.00    +0.000 A 
ENDBRANCH   1  18
BRANCH   9  20
ATOM     20  N   UNL     1      26.459   3.274  50.887  0.00  0.00    +0.000 N 
ATOM     21  H   UNL     1      27.302   3.162  50.391  0.00  0.00    +0.000 HD
BRANCH  20  22
ATOM     22  N   UNL     1      25.685   4.374  50.729  0.00  0.00    +0.000 NA
ATOM     23  N   UNL     1      25.608   4.553  49.497  0.00  0.00    +0.000 NA
BRANCH  23  24
ATOM     24  C   UNL     1      24.706   5.664  49.131  0.00  0.00    +0.000 C 
BRANCH  24  25
ATOM     25  C   UNL     1      25.531   6.872  48.648  0.00  0.00    +0.000 C 
BRANCH  25  26
ATOM     26  N   UNL     1      26.775   7.130  49.405  0.00  0.00    +0.000 N 
ATOM     27  C   UNL     1      26.716   8.445  50.092  0.00  0.00    +0.000 C 
ATOM     28  C   UNL     1      26.854   9.650  49.142  0.00  0.00    +0.000 C 
ATOM     29  O   UNL     1      28.050   9.568  48.355  0.00  0.00    +0.000 OA
ATOM     30  C   UNL     1      28.118   8.332  47.635  0.00  0.00    +0.000 C 
ATOM     31  C   UNL     1      28.003   7.125  48.579  0.00  0.00    +0.000 C 
ATOM     32  H   UNL     1      26.831   6.355  50.068  0.00  0.00    +0.000 HD
ENDBRANCH  25  26
ENDBRANCH  24  25
ENDBRANCH  23  24
ENDBRANCH  20  22
ENDBRANCH   9  20
TORSDOF 6
ENDMDL
MODEL 9
REMARK VINA RESULT:    -7.361      3.535      6.038
REMARK INTER + INTRA:         -11.337
REMARK INTER:                 -10.238
REMARK INTRA:                  -1.099
REMARK UNBOUND:                -1.394
REMARK  Name = 
REMARK  6 active torsions:
REMARK  status: ('A' for Active; 'I' for Inactive)
REMARK    1  A    between atoms: C_6  and  N_7
REMARK    2  A    between atoms: C_15  and  N_16
REMARK    3  A    between atoms: N_16  and  N_17
REMARK    4  A    between atoms: N_18  and  C_19
REMARK    5  A    between atoms: C_19  and  C_20
REMARK    6  A    between atoms: C_20  and  N_21
REMARK                            x       y       z     vdW  Elec       q    Type
REMARK                         _______ _______ _______ _____ _____    ______ ____
ROOT
ATOM      1  N   UNL     1      22.536   1.867  51.192  0.00  0.00    +0.000 N 
ATOM      2  C   UNL     1      23.324   1.121  52.098  0.00  0.00    +0.000 A 
ATOM      3  N   UNL     1      24.641   1.377  52.177  0.00  0.00    +0.000 NA
ATOM      4  C   UNL     1      25.336   0.662  53.065  0.00  0.00    +0.000 A 
ATOM      5  N   UNL     1      24.844  -0.271  53.889  0.00  0.00    +0.000 NA
ATOM      6  C   UNL     1      23.524  -0.489  53.829  0.00  0.00    +0.000 A 
ATOM      7  C   UNL     1      22.930  -1.351  54.742  0.00  0.00    +0.000 A 
ATOM      8  C   UNL     1      21.537  -1.508  54.810  0.00  0.00    +0.000 A 
ATOM      9  C   UNL     1      20.703  -0.840  53.915  0.00  0.00    +0.000 A 
ATOM     10  C   UNL     1      21.301  -0.072  52.914  0.00  0.00    +0.000 A 
ATOM     11  C   UNL     1      22.698   0.166  52.910  0.00  0.00    +0.000 A 
ATOM     12  H   UNL     1      21.851   1.363  50.695  0.00  0.00    +0.000 HD
ENDROOT
BRANCH   1  18
ATOM     13 BR   UNL     1      22.914   5.739  47.583  0.00  0.00    +0.000 Br
ATOM     14  C   UNL     1      22.832   5.102  49.364  0.00  0.00    +0.000 A 
ATOM     15  C   UNL     1      22.963   5.997  50.421  0.00  0.00    +0.000 A 
ATOM     16  C   UNL     1      22.942   5.519  51.728  0.00  0.00    +0.000 A 
ATOM     17  C   UNL     1      22.785   4.152  51.971  0.00  0.00    +0.000 A 
ATOM     18  C   UNL     1      22.617   3.244  50.916  0.00  0.00    +0.000 A 
ATOM     19  C   UNL     1      22.662   3.737  49.603  0.00  0.00    +0.000 A 
ENDBRANCH   1  18
BRANCH   9  20
ATOM     20  N   UNL     1      19.299  -0.889  54.000  0.00  0.00    +0.000 N 
ATOM     21  H   UNL     1      18.838  -0.980  54.866  0.00  0.00    +0.000 HD
BRANCH  20  22
ATOM     22  N   UNL     1      18.611  -0.807  52.836  0.00  0.00    +0.000 NA
ATOM     23  N   UNL     1      17.410  -0.739  53.165  0.00  0.00    +0.000 NA
BRANCH  23  24
ATOM     24  C   UNL     1      16.507  -0.538  52.012  0.00  0.00    +0.000 C 
BRANCH  24  25
ATOM     25  C   UNL     1      15.855   0.854  52.093  0.00  0.00    +0.000 C 
BRANCH  25  26
ATOM     26  N   UNL     1      16.100   1.735  50.930  0.00  0.00    +0.000 N 
ATOM     27  C   UNL     1      17.552   1.833  50.634  0.00  0.00    +0.000 C 
ATOM     28  C   UNL     1      18.338   2.686  51.648  0.00  0.00    +0.000 C 
ATOM     29  O   UNL     1      17.780   4.001  51.778  0.00  0.00    +0.000 OA
ATOM     30  C   UNL     1      16.389   3.947  52.115  0.00  0.00    +0.000 C 
ATOM     31  C   UNL     1      15.596   3.116  51.095  0.00  0.00    +0.000 C 
ATOM     32  H   UNL     1      15.585   1.294  50.167  0.00  0.00    +0.000 HD
ENDBRANCH  25  26
ENDBRANCH  24  25
ENDBRANCH  23  24
ENDBRANCH  20  22
ENDBRANCH   9  20
TORSDOF 6
ENDMDL
