MODEL 1
REMARK VINA RESULT:    -9.715      0.000      0.000
REMARK INTER + INTRA:         -11.287
REMARK INTER:                 -10.850
REMARK INTRA:                  -0.436
REMARK UNBOUND:                -0.436
REMARK  Name = 
REMARK  3 active torsions:
REMARK  status: ('A' for Active; 'I' for Inactive)
REMARK    1  A    between atoms: C_1  and  N_2
REMARK    2  A    between atoms: C_8  and  O_9
REMARK    3  A    between atoms: O_9  and  C_10
REMARK                            x       y       z     vdW  Elec       q    Type
REMARK                         _______ _______ _______ _____ _____    ______ ____
ROOT
ATOM      1  C   UNL     1      17.665  -1.149  53.421  0.00  0.00    +0.000 C 
ATOM      2  N   UNL     1      18.967  -0.979  52.781  0.00  0.00    +0.000 N 
ATOM      3  C   UNL     1      18.885   0.003  51.677  0.00  0.00    +0.000 C 
ATOM      4  C   UNL     1      20.252   0.231  50.985  0.00  0.00    +0.000 C 
ATOM      5  N   UNL     1      21.233   0.629  51.995  0.00  0.00    +0.000 N 
ATOM      6  C   UNL     1      22.293   1.430  51.644  0.00  0.00    +0.000 A 
ATOM      7  N   UNL     1      23.243   1.630  52.566  0.00  0.00    +0.000 NA
ATOM      8  C   UNL     1      24.209   2.549  52.365  0.00  0.00    +0.000 A 
ATOM      9  C   UNL     1      24.263   3.216  51.154  0.00  0.00    +0.000 A 
ATOM     10  S   UNL     1      25.364   4.390  50.561  0.00  0.00    +0.000 S 
ATOM     11  C   UNL     1      24.521   4.529  49.079  0.00  0.00    +0.000 A 
ATOM     12  C   UNL     1      23.416   3.708  49.038  0.00  0.00    +0.000 A 
ATOM     13  C   UNL     1      23.266   2.939  50.230  0.00  0.00    +0.000 A 
ATOM     14  N   UNL     1      22.268   2.059  50.468  0.00  0.00    +0.000 NA
ATOM     15  C   UNL     1      21.366  -0.295  53.125  0.00  0.00    +0.000 C 
ATOM     16  C   UNL     1      19.977  -0.521  53.764  0.00  0.00    +0.000 C 
ATOM     17  H   UNL     1      19.248  -1.886  52.405  0.00  0.00    +0.000 HD
ENDROOT
BRANCH   8  18
ATOM     18  O   UNL     1      25.131   2.806  53.372  0.00  0.00    +0.000 OA
BRANCH  18  19
ATOM     19  C   UNL     1      26.280   2.043  53.405  0.00  0.00    +0.000 A 
ATOM     20  C   UNL     1      27.483   2.742  53.546  0.00  0.00    +0.000 A 
ATOM     21  C   UNL     1      28.700   2.052  53.616  0.00  0.00    +0.000 A 
ATOM     22  C   UNL     1      28.715   0.657  53.546  0.00  0.00    +0.000 A 
ATOM     23  C   UNL     1      29.963  -0.106  53.607  0.00  0.00    +0.000 A 
ATOM     24  C   UNL     1      29.935  -1.444  53.526  0.00  0.00    +0.000 A 
ATOM     25  C   UNL     1      28.658  -2.186  53.373  0.00  0.00    +0.000 A 
ATOM     26  O   UNL     1      28.645  -3.407  53.281  0.00  0.00    +0.000 OA
ATOM     27  N   UNL     1      27.515  -1.435  53.339  0.00  0.00    +0.000 N 
ATOM     28  C   UNL     1      27.505  -0.037  53.423  0.00  0.00    +0.000 A 
ATOM     29  C   UNL     1      26.292   0.645  53.376  0.00  0.00    +0.000 A 
ATOM     30  H   UNL     1      26.653  -1.903  53.250  0.00  0.00    +0.000 HD
ENDBRANCH  18  19
ENDBRANCH   8  18
TORSDOF 2
ENDMDL
MODEL 2
REMARK VINA RESULT:    -9.588      3.220      5.902
REMARK INTER + INTRA:         -11.146
REMARK INTER:                 -10.647
REMARK INTRA:                  -0.499
REMARK UNBOUND:                -0.436
REMARK  Name = 
REMARK  3 active torsions:
REMARK  status: ('A' for Active; 'I' for Inactive)
REMARK    1  A    between atoms: C_1  and  N_2
REMARK    2  A    between atoms: C_8  and  O_9
REMARK    3  A    between atoms: O_9  and  C_10
REMARK                            x       y       z     vdW  Elec       q    Type
REMARK                         _______ _______ _______ _____ _____    ______ ____
ROOT
ATOM      1  C   UNL     1      27.024   8.964  48.863  0.00  0.00    +0.000 C 
ATOM      2  N   UNL     1      25.771   8.288  49.187  0.00  0.00    +0.000 N 
ATOM      3  C   UNL     1      25.368   7.378  48.092  0.00  0.00    +0.000 C 
ATOM      4  C   UNL     1      24.053   6.621  48.406  0.00  0.00    +0.000 C 
ATOM      5  N   UNL     1      24.208   5.909  49.674  0.00  0.00    +0.000 N 
ATOM      6  C   UNL     1      23.503   4.751  49.903  0.00  0.00    +0.000 A 
ATOM      7  N   UNL     1      23.559   4.232  51.135  0.00  0.00    +0.000 NA
ATOM      8  C   UNL     1      23.055   3.006  51.384  0.00  0.00    +0.000 A 
ATOM      9  C   UNL     1      22.393   2.332  50.374  0.00  0.00    +0.000 A 
ATOM     10  S   UNL     1      21.607   0.807  50.362  0.00  0.00    +0.000 S 
ATOM     11  C   UNL     1      21.199   0.956  48.707  0.00  0.00    +0.000 A 
ATOM     12  C   UNL     1      21.660   2.136  48.169  0.00  0.00    +0.000 A 
ATOM     13  C   UNL     1      22.343   2.941  49.129  0.00  0.00    +0.000 A 
ATOM     14  N   UNL     1      22.906   4.144  48.877  0.00  0.00    +0.000 NA
ATOM     15  C   UNL     1      24.614   6.746  50.807  0.00  0.00    +0.000 C 
ATOM     16  C   UNL     1      25.907   7.508  50.440  0.00  0.00    +0.000 C 
ATOM     17  H   UNL     1      25.056   9.005  49.311  0.00  0.00    +0.000 HD
ENDROOT
BRANCH   8  18
ATOM     18  O   UNL     1      23.206   2.446  52.647  0.00  0.00    +0.000 OA
BRANCH  18  19
ATOM     19  C   UNL     1      24.407   1.837  52.944  0.00  0.00    +0.000 A 
ATOM     20  C   UNL     1      24.483   0.463  52.693  0.00  0.00    +0.000 A 
ATOM     21  C   UNL     1      25.671  -0.238  52.938  0.00  0.00    +0.000 A 
ATOM     22  C   UNL     1      26.789   0.437  53.435  0.00  0.00    +0.000 A 
ATOM     23  C   UNL     1      28.048  -0.255  53.713  0.00  0.00    +0.000 A 
ATOM     24  C   UNL     1      29.094   0.427  54.199  0.00  0.00    +0.000 A 
ATOM     25  C   UNL     1      29.013   1.886  54.469  0.00  0.00    +0.000 A 
ATOM     26  O   UNL     1      29.969   2.495  54.931  0.00  0.00    +0.000 OA
ATOM     27  N   UNL     1      27.824   2.496  54.177  0.00  0.00    +0.000 N 
ATOM     28  C   UNL     1      26.711   1.816  53.666  0.00  0.00    +0.000 A 
ATOM     29  C   UNL     1      25.538   2.520  53.403  0.00  0.00    +0.000 A 
ATOM     30  H   UNL     1      27.747   3.464  54.335  0.00  0.00    +0.000 HD
ENDBRANCH  18  19
ENDBRANCH   8  18
TORSDOF 2
ENDMDL
MODEL 3
REMARK VINA RESULT:    -9.405      2.336      5.269
REMARK INTER + INTRA:         -10.941
REMARK INTER:                 -10.466
REMARK INTRA:                  -0.474
REMARK UNBOUND:                -0.436
REMARK  Name = 
REMARK  3 active torsions:
REMARK  status: ('A' for Active; 'I' for Inactive)
REMARK    1  A    between atoms: C_1  and  N_2
REMARK    2  A    between atoms: C_8  and  O_9
REMARK    3  A    between atoms: O_9  and  C_10
REMARK                            x       y       z     vdW  Elec       q    Type
REMARK                         _______ _______ _______ _____ _____    ______ ____
ROOT
ATOM      1  C   UNL     1      26.263   8.306  47.588  0.00  0.00    +0.000 C 
ATOM      2  N   UNL     1      25.300   7.692  48.498  0.00  0.00    +0.000 N 
ATOM      3  C   UNL     1      24.599   6.568  47.840  0.00  0.00    +0.000 C 
ATOM      4  C   UNL     1      23.583   5.873  48.780  0.00  0.00    +0.000 C 
ATOM      5  N   UNL     1      24.278   5.443  49.993  0.00  0.00    +0.000 N 
ATOM      6  C   UNL     1      23.829   4.347  50.690  0.00  0.00    +0.000 A 
ATOM      7  N   UNL     1      24.401   4.096  51.874  0.00  0.00    +0.000 NA
ATOM      8  C   UNL     1      24.151   2.941  52.524  0.00  0.00    +0.000 A 
ATOM      9  C   UNL     1      23.221   2.062  52.000  0.00  0.00    +0.000 A 
ATOM     10  S   UNL     1      22.641   0.555  52.580  0.00  0.00    +0.000 S 
ATOM     11  C   UNL     1      21.620   0.350  51.223  0.00  0.00    +0.000 A 
ATOM     12  C   UNL     1      21.724   1.400  50.338  0.00  0.00    +0.000 A 
ATOM     13  C   UNL     1      22.641   2.397  50.785  0.00  0.00    +0.000 A 
ATOM     14  N   UNL     1      22.946   3.530  50.114  0.00  0.00    +0.000 NA
ATOM     15  C   UNL     1      25.004   6.503  50.698  0.00  0.00    +0.000 C 
ATOM     16  C   UNL     1      25.979   7.193  49.717  0.00  0.00    +0.000 C 
ATOM     17  H   UNL     1      24.621   8.408  48.759  0.00  0.00    +0.000 HD
ENDROOT
BRANCH   8  18
ATOM     18  O   UNL     1      24.825   2.659  53.705  0.00  0.00    +0.000 OA
BRANCH  18  19
ATOM     19  C   UNL     1      26.031   1.994  53.617  0.00  0.00    +0.000 A 
ATOM     20  C   UNL     1      27.178   2.794  53.581  0.00  0.00    +0.000 A 
ATOM     21  C   UNL     1      28.449   2.209  53.518  0.00  0.00    +0.000 A 
ATOM     22  C   UNL     1      28.576   0.819  53.493  0.00  0.00    +0.000 A 
ATOM     23  C   UNL     1      29.882   0.163  53.420  0.00  0.00    +0.000 A 
ATOM     24  C   UNL     1      29.960  -1.175  53.387  0.00  0.00    +0.000 A 
ATOM     25  C   UNL     1      28.743  -2.025  53.422  0.00  0.00    +0.000 A 
ATOM     26  O   UNL     1      28.825  -3.245  53.373  0.00  0.00    +0.000 OA
ATOM     27  N   UNL     1      27.544  -1.371  53.509  0.00  0.00    +0.000 N 
ATOM     28  C   UNL     1      27.424   0.024  53.547  0.00  0.00    +0.000 A 
ATOM     29  C   UNL     1      26.160   0.602  53.632  0.00  0.00    +0.000 A 
ATOM     30  H   UNL     1      26.722  -1.911  53.546  0.00  0.00    +0.000 HD
ENDBRANCH  18  19
ENDBRANCH   8  18
TORSDOF 2
ENDMDL
MODEL 4
REMARK VINA RESULT:    -9.100      3.069      7.397
REMARK INTER + INTRA:         -10.600
REMARK INTER:                 -10.108
REMARK INTRA:                  -0.492
REMARK UNBOUND:                -0.436
REMARK  Name = 
REMARK  3 active torsions:
REMARK  status: ('A' for Active; 'I' for Inactive)
REMARK    1  A    between atoms: C_1  and  N_2
REMARK    2  A    between atoms: C_8  and  O_9
REMARK    3  A    between atoms: O_9  and  C_10
REMARK                            x       y       z     vdW  Elec       q    Type
REMARK                         _______ _______ _______ _____ _____    ______ ____
ROOT
ATOM      1  C   UNL     1      29.418   0.104  54.081  0.00  0.00    +0.000 C 
ATOM      2  N   UNL     1      28.298   0.293  53.163  0.00  0.00    +0.000 N 
ATOM      3  C   UNL     1      27.127  -0.502  53.593  0.00  0.00    +0.000 C 
ATOM      4  C   UNL     1      25.907  -0.311  52.658  0.00  0.00    +0.000 C 
ATOM      5  N   UNL     1      25.593   1.115  52.574  0.00  0.00    +0.000 N 
ATOM      6  C   UNL     1      24.302   1.522  52.338  0.00  0.00    +0.000 A 
ATOM      7  N   UNL     1      24.101   2.825  52.111  0.00  0.00    +0.000 NA
ATOM      8  C   UNL     1      22.850   3.326  52.061  0.00  0.00    +0.000 A 
ATOM      9  C   UNL     1      21.774   2.462  52.150  0.00  0.00    +0.000 A 
ATOM     10  S   UNL     1      20.085   2.751  52.079  0.00  0.00    +0.000 S 
ATOM     11  C   UNL     1      19.724   1.096  52.315  0.00  0.00    +0.000 A 
ATOM     12  C   UNL     1      20.864   0.337  52.457  0.00  0.00    +0.000 A 
ATOM     13  C   UNL     1      22.053   1.118  52.353  0.00  0.00    +0.000 A 
ATOM     14  N   UNL     1      23.311   0.637  52.462  0.00  0.00    +0.000 NA
ATOM     15  C   UNL     1      26.710   1.970  52.160  0.00  0.00    +0.000 C 
ATOM     16  C   UNL     1      27.915   1.723  53.095  0.00  0.00    +0.000 C 
ATOM     17  H   UNL     1      28.599  -0.020  52.240  0.00  0.00    +0.000 HD
ENDROOT
BRANCH   8  18
ATOM     18  O   UNL     1      22.665   4.696  51.917  0.00  0.00    +0.000 OA
BRANCH  18  19
ATOM     19  C   UNL     1      23.480   5.367  51.030  0.00  0.00    +0.000 A 
ATOM     20  C   UNL     1      23.250   5.125  49.672  0.00  0.00    +0.000 A 
ATOM     21  C   UNL     1      24.010   5.781  48.695  0.00  0.00    +0.000 A 
ATOM     22  C   UNL     1      25.004   6.685  49.077  0.00  0.00    +0.000 A 
ATOM     23  C   UNL     1      25.829   7.388  48.092  0.00  0.00    +0.000 A 
ATOM     24  C   UNL     1      26.780   8.239  48.500  0.00  0.00    +0.000 A 
ATOM     25  C   UNL     1      27.027   8.495  49.942  0.00  0.00    +0.000 A 
ATOM     26  O   UNL     1      27.911   9.261  50.304  0.00  0.00    +0.000 OA
ATOM     27  N   UNL     1      26.222   7.831  50.827  0.00  0.00    +0.000 N 
ATOM     28  C   UNL     1      25.217   6.936  50.438  0.00  0.00    +0.000 A 
ATOM     29  C   UNL     1      24.448   6.302  51.411  0.00  0.00    +0.000 A 
ATOM     30  H   UNL     1      26.356   7.992  51.789  0.00  0.00    +0.000 HD
ENDBRANCH  18  19
ENDBRANCH   8  18
TORSDOF 2
ENDMDL
MODEL 5
REMARK VINA RESULT:    -9.073      2.567      6.912
REMARK INTER + INTRA:         -10.570
REMARK INTER:                 -10.910
REMARK INTRA:                   0.340
REMARK UNBOUND:                -0.436
REMARK  Name = 
REMARK  3 active torsions:
REMARK  status: ('A' for Active; 'I' for Inactive)
REMARK    1  A    between atoms: C_1  and  N_2
REMARK    2  A    between atoms: C_8  and  O_9
REMARK    3  A    between atoms: O_9  and  C_10
REMARK                            x       y       z     vdW  Elec       q    Type
REMARK                         _______ _______ _______ _____ _____    ______ ____
ROOT
ATOM      1  C   UNL     1      22.402   6.059  49.037  0.00  0.00    +0.000 C 
ATOM      2  N   UNL     1      23.388   4.994  49.203  0.00  0.00    +0.000 N 
ATOM      3  C   UNL     1      24.581   5.491  49.922  0.00  0.00    +0.000 C 
ATOM      4  C   UNL     1      25.644   4.386  50.140  0.00  0.00    +0.000 C 
ATOM      5  N   UNL     1      25.020   3.261  50.837  0.00  0.00    +0.000 N 
ATOM      6  C   UNL     1      25.776   2.454  51.653  0.00  0.00    +0.000 A 
ATOM      7  N   UNL     1      25.193   1.350  52.135  0.00  0.00    +0.000 NA
ATOM      8  C   UNL     1      25.802   0.614  53.087  0.00  0.00    +0.000 A 
ATOM      9  C   UNL     1      27.079   0.959  53.491  0.00  0.00    +0.000 A 
ATOM     10  S   UNL     1      28.140   0.229  54.623  0.00  0.00    +0.000 S 
ATOM     11  C   UNL     1      29.341   1.419  54.366  0.00  0.00    +0.000 A 
ATOM     12  C   UNL     1      28.942   2.361  53.445  0.00  0.00    +0.000 A 
ATOM     13  C   UNL     1      27.638   2.097  52.928  0.00  0.00    +0.000 A 
ATOM     14  N   UNL     1      26.993   2.860  52.019  0.00  0.00    +0.000 NA
ATOM     15  C   UNL     1      23.825   2.717  50.186  0.00  0.00    +0.000 C 
ATOM     16  C   UNL     1      22.807   3.857  49.955  0.00  0.00    +0.000 C 
ATOM     17  H   UNL     1      23.662   4.678  48.272  0.00  0.00    +0.000 HD
ENDROOT
BRANCH   8  18
ATOM     18  O   UNL     1      25.140  -0.475  53.640  0.00  0.00    +0.000 OA
BRANCH  18  19
ATOM     19  C   UNL     1      23.764  -0.511  53.544  0.00  0.00    +0.000 A 
ATOM     20  C   UNL     1      23.078  -1.014  54.654  0.00  0.00    +0.000 A 
ATOM     21  C   UNL     1      21.678  -1.065  54.660  0.00  0.00    +0.000 A 
ATOM     22  C   UNL     1      20.960  -0.612  53.552  0.00  0.00    +0.000 A 
ATOM     23  C   UNL     1      19.497  -0.653  53.509  0.00  0.00    +0.000 A 
ATOM     24  C   UNL     1      18.846  -0.217  52.422  0.00  0.00    +0.000 A 
ATOM     25  C   UNL     1      19.574   0.314  51.241  0.00  0.00    +0.000 A 
ATOM     26  O   UNL     1      18.969   0.692  50.246  0.00  0.00    +0.000 OA
ATOM     27  N   UNL     1      20.938   0.352  51.331  0.00  0.00    +0.000 N 
ATOM     28  C   UNL     1      21.653  -0.093  52.450  0.00  0.00    +0.000 A 
ATOM     29  C   UNL     1      23.044  -0.020  52.451  0.00  0.00    +0.000 A 
ATOM     30  H   UNL     1      21.444   0.710  50.567  0.00  0.00    +0.000 HD
ENDBRANCH  18  19
ENDBRANCH   8  18
TORSDOF 2
ENDMDL
MODEL 6
REMARK VINA RESULT:    -9.057      2.775      8.033
REMARK INTER + INTRA:         -10.552
REMARK INTER:                 -10.316
REMARK INTRA:                  -0.236
REMARK UNBOUND:                -0.436
REMARK  Name = 
REMARK  3 active torsions:
REMARK  status: ('A' for Active; 'I' for Inactive)
REMARK    1  A    between atoms: C_1  and  N_2
REMARK    2  A    between atoms: C_8  and  O_9
REMARK    3  A    between atoms: O_9  and  C_10
REMARK                            x       y       z     vdW  Elec       q    Type
REMARK                         _______ _______ _______ _____ _____    ______ ____
ROOT
ATOM      1  C   UNL     1      29.697  -0.924  53.831  0.00  0.00    +0.000 C 
ATOM      2  N   UNL     1      28.354  -0.398  54.061  0.00  0.00    +0.000 N 
ATOM      3  C   UNL     1      28.337   1.075  53.921  0.00  0.00    +0.000 C 
ATOM      4  C   UNL     1      26.924   1.672  54.134  0.00  0.00    +0.000 C 
ATOM      5  N   UNL     1      25.993   1.029  53.208  0.00  0.00    +0.000 N 
ATOM      6  C   UNL     1      24.888   1.712  52.759  0.00  0.00    +0.000 A 
ATOM      7  N   UNL     1      23.989   1.023  52.045  0.00  0.00    +0.000 NA
ATOM      8  C   UNL     1      22.983   1.662  51.413  0.00  0.00    +0.000 A 
ATOM      9  C   UNL     1      22.834   3.025  51.591  0.00  0.00    +0.000 A 
ATOM     10  S   UNL     1      21.661   4.120  50.985  0.00  0.00    +0.000 S 
ATOM     11  C   UNL     1      22.408   5.451  51.755  0.00  0.00    +0.000 A 
ATOM     12  C   UNL     1      23.535   5.076  52.452  0.00  0.00    +0.000 A 
ATOM     13  C   UNL     1      23.782   3.673  52.369  0.00  0.00    +0.000 A 
ATOM     14  N   UNL     1      24.821   3.030  52.947  0.00  0.00    +0.000 NA
ATOM     15  C   UNL     1      25.959  -0.435  53.284  0.00  0.00    +0.000 C 
ATOM     16  C   UNL     1      27.391  -0.988  53.101  0.00  0.00    +0.000 C 
ATOM     17  H   UNL     1      28.081  -0.650  55.011  0.00  0.00    +0.000 HD
ENDROOT
BRANCH   8  18
ATOM     18  O   UNL     1      22.115   0.940  50.603  0.00  0.00    +0.000 OA
BRANCH  18  19
ATOM     19  C   UNL     1      20.961   0.445  51.173  0.00  0.00    +0.000 A 
ATOM     20  C   UNL     1      21.084  -0.081  52.463  0.00  0.00    +0.000 A 
ATOM     21  C   UNL     1      19.962  -0.583  53.135  0.00  0.00    +0.000 A 
ATOM     22  C   UNL     1      18.710  -0.559  52.515  0.00  0.00    +0.000 A 
ATOM     23  C   UNL     1      17.511  -1.079  53.174  0.00  0.00    +0.000 A 
ATOM     24  C   UNL     1      16.331  -1.047  52.541  0.00  0.00    +0.000 A 
ATOM     25  C   UNL     1      16.200  -0.492  51.169  0.00  0.00    +0.000 A 
ATOM     26  O   UNL     1      15.120  -0.484  50.592  0.00  0.00    +0.000 OA
ATOM     27  N   UNL     1      17.342   0.001  50.598  0.00  0.00    +0.000 N 
ATOM     28  C   UNL     1      18.591  -0.014  51.230  0.00  0.00    +0.000 A 
ATOM     29  C   UNL     1      19.701   0.506  50.569  0.00  0.00    +0.000 A 
ATOM     30  H   UNL     1      17.280   0.385  49.694  0.00  0.00    +0.000 HD
ENDBRANCH  18  19
ENDBRANCH   8  18
TORSDOF 2
ENDMDL
MODEL 7
REMARK VINA RESULT:    -8.732      2.795      6.058
REMARK INTER + INTRA:         -10.189
REMARK INTER:                  -9.867
REMARK INTRA:                  -0.322
REMARK UNBOUND:                -0.436
REMARK  Name = 
REMARK  3 active torsions:
REMARK  status: ('A' for Active; 'I' for Inactive)
REMARK    1  A    between atoms: C_1  and  N_2
REMARK    2  A    between atoms: C_8  and  O_9
REMARK    3  A    between atoms: O_9  and  C_10
REMARK                            x       y       z     vdW  Elec       q    Type
REMARK                         _______ _______ _______ _____ _____    ______ ____
ROOT
ATOM      1  C   UNL     1      17.834  -1.969  53.515  0.00  0.00    +0.000 C 
ATOM      2  N   UNL     1      18.873  -0.959  53.693  0.00  0.00    +0.000 N 
ATOM      3  C   UNL     1      20.127  -1.576  54.181  0.00  0.00    +0.000 C 
ATOM      4  C   UNL     1      21.264  -0.540  54.361  0.00  0.00    +0.000 C 
ATOM      5  N   UNL     1      21.464   0.169  53.097  0.00  0.00    +0.000 N 
ATOM      6  C   UNL     1      22.703   0.672  52.780  0.00  0.00    +0.000 A 
ATOM      7  N   UNL     1      22.790   1.448  51.693  0.00  0.00    +0.000 NA
ATOM      8  C   UNL     1      23.995   1.820  51.212  0.00  0.00    +0.000 A 
ATOM      9  C   UNL     1      25.135   1.471  51.912  0.00  0.00    +0.000 A 
ATOM     10  S   UNL     1      26.790   1.813  51.615  0.00  0.00    +0.000 S 
ATOM     11  C   UNL     1      27.288   0.933  52.994  0.00  0.00    +0.000 A 
ATOM     12  C   UNL     1      26.220   0.379  53.664  0.00  0.00    +0.000 A 
ATOM     13  C   UNL     1      24.972   0.694  53.049  0.00  0.00    +0.000 A 
ATOM     14  N   UNL     1      23.763   0.277  53.486  0.00  0.00    +0.000 NA
ATOM     15  C   UNL     1      20.262   0.801  52.547  0.00  0.00    +0.000 C 
ATOM     16  C   UNL     1      19.143  -0.257  52.416  0.00  0.00    +0.000 C 
ATOM     17  H   UNL     1      18.537  -0.287  54.384  0.00  0.00    +0.000 HD
ENDROOT
BRANCH   8  18
ATOM     18  O   UNL     1      24.067   2.546  50.031  0.00  0.00    +0.000 OA
BRANCH  18  19
ATOM     19  C   UNL     1      24.204   3.916  50.123  0.00  0.00    +0.000 A 
ATOM     20  C   UNL     1      23.093   4.619  50.600  0.00  0.00    +0.000 A 
ATOM     21  C   UNL     1      23.146   6.010  50.753  0.00  0.00    +0.000 A 
ATOM     22  C   UNL     1      24.314   6.703  50.430  0.00  0.00    +0.000 A 
ATOM     23  C   UNL     1      24.414   8.157  50.566  0.00  0.00    +0.000 A 
ATOM     24  C   UNL     1      25.551   8.785  50.235  0.00  0.00    +0.000 A 
ATOM     25  C   UNL     1      26.730   8.040  49.725  0.00  0.00    +0.000 A 
ATOM     26  O   UNL     1      27.757   8.626  49.408  0.00  0.00    +0.000 OA
ATOM     27  N   UNL     1      26.600   6.681  49.631  0.00  0.00    +0.000 N 
ATOM     28  C   UNL     1      25.429   5.991  49.970  0.00  0.00    +0.000 A 
ATOM     29  C   UNL     1      25.387   4.605  49.837  0.00  0.00    +0.000 A 
ATOM     30  H   UNL     1      27.371   6.162  49.307  0.00  0.00    +0.000 HD
ENDBRANCH  18  19
ENDBRANCH   8  18
TORSDOF 2
ENDMDL
MODEL 8
REMARK VINA RESULT:    -8.713      3.990      7.336
REMARK INTER + INTRA:         -10.167
REMARK INTER:                  -9.774
REMARK INTRA:                  -0.393
REMARK UNBOUND:                -0.436
REMARK  Name = 
REMARK  3 active torsions:
REMARK  status: ('A' for Active; 'I' for Inactive)
REMARK    1  A    between atoms: C_1  and  N_2
REMARK    2  A    between atoms: C_8  and  O_9
REMARK    3  A    between atoms: O_9  and  C_10
REMARK                            x       y       z     vdW  Elec       q    Type
REMARK                         _______ _______ _______ _____ _____    ______ ____
ROOT
ATOM      1  C   UNL     1      29.272   6.169  48.172  0.00  0.00    +0.000 C 
ATOM      2  N   UNL     1      28.099   5.936  49.011  0.00  0.00    +0.000 N 
ATOM      3  C   UNL     1      27.048   6.939  48.732  0.00  0.00    +0.000 C 
ATOM      4  C   UNL     1      25.775   6.715  49.585  0.00  0.00    +0.000 C 
ATOM      5  N   UNL     1      25.294   5.350  49.369  0.00  0.00    +0.000 N 
ATOM      6  C   UNL     1      23.956   5.065  49.493  0.00  0.00    +0.000 A 
ATOM      7  N   UNL     1      23.595   3.777  49.444  0.00  0.00    +0.000 NA
ATOM      8  C   UNL     1      22.293   3.433  49.367  0.00  0.00    +0.000 A 
ATOM      9  C   UNL     1      21.330   4.423  49.437  0.00  0.00    +0.000 A 
ATOM     10  S   UNL     1      19.618   4.334  49.416  0.00  0.00    +0.000 S 
ATOM     11  C   UNL     1      19.461   6.034  49.519  0.00  0.00    +0.000 A 
ATOM     12  C   UNL     1      20.687   6.661  49.557  0.00  0.00    +0.000 A 
ATOM     13  C   UNL     1      21.771   5.736  49.519  0.00  0.00    +0.000 A 
ATOM     14  N   UNL     1      23.081   6.071  49.534  0.00  0.00    +0.000 NA
ATOM     15  C   UNL     1      26.285   4.300  49.620  0.00  0.00    +0.000 C 
ATOM     16  C   UNL     1      27.550   4.580  48.777  0.00  0.00    +0.000 C 
ATOM     17  H   UNL     1      28.394   6.019  49.984  0.00  0.00    +0.000 HD
ENDROOT
BRANCH   8  18
ATOM     18  O   UNL     1      21.945   2.096  49.224  0.00  0.00    +0.000 OA
BRANCH  18  19
ATOM     19  C   UNL     1      21.656   1.378  50.366  0.00  0.00    +0.000 A 
ATOM     20  C   UNL     1      20.315   1.025  50.553  0.00  0.00    +0.000 A 
ATOM     21  C   UNL     1      19.929   0.273  51.670  0.00  0.00    +0.000 A 
ATOM     22  C   UNL     1      20.886  -0.128  52.604  0.00  0.00    +0.000 A 
ATOM     23  C   UNL     1      20.529  -0.908  53.791  0.00  0.00    +0.000 A 
ATOM     24  C   UNL     1      21.476  -1.264  54.669  0.00  0.00    +0.000 A 
ATOM     25  C   UNL     1      22.899  -0.886  54.474  0.00  0.00    +0.000 A 
ATOM     26  O   UNL     1      23.753  -1.201  55.292  0.00  0.00    +0.000 OA
ATOM     27  N   UNL     1      23.192  -0.174  53.342  0.00  0.00    +0.000 N 
ATOM     28  C   UNL     1      22.229   0.214  52.402  0.00  0.00    +0.000 A 
ATOM     29  C   UNL     1      22.620   0.942  51.280  0.00  0.00    +0.000 A 
ATOM     30  H   UNL     1      24.129   0.079  53.182  0.00  0.00    +0.000 HD
ENDBRANCH  18  19
ENDBRANCH   8  18
TORSDOF 2
ENDMDL
MODEL 9
REMARK VINA RESULT:    -8.547      2.189      3.157
REMARK INTER + INTRA:          -9.983
REMARK INTER:                  -9.722
REMARK INTRA:                  -0.261
REMARK UNBOUND:                -0.436
REMARK  Name = 
REMARK  3 active torsions:
REMARK  status: ('A' for Active; 'I' for Inactive)
REMARK    1  A    between atoms: C_1  and  N_2
REMARK    2  A    between atoms: C_8  and  O_9
REMARK    3  A    between atoms: O_9  and  C_10
REMARK                            x       y       z     vdW  Elec       q    Type
REMARK                         _______ _______ _______ _____ _____    ______ ____
ROOT
ATOM      1  C   UNL     1      14.804  -1.303  52.170  0.00  0.00    +0.000 C 
ATOM      2  N   UNL     1      16.192  -1.223  51.723  0.00  0.00    +0.000 N 
ATOM      3  C   UNL     1      16.313  -0.340  50.542  0.00  0.00    +0.000 C 
ATOM      4  C   UNL     1      17.775  -0.208  50.050  0.00  0.00    +0.000 C 
ATOM      5  N   UNL     1      18.609   0.253  51.160  0.00  0.00    +0.000 N 
ATOM      6  C   UNL     1      19.739   0.994  50.909  0.00  0.00    +0.000 A 
ATOM      7  N   UNL     1      20.547   1.250  51.945  0.00  0.00    +0.000 NA
ATOM      8  C   UNL     1      21.567   2.124  51.817  0.00  0.00    +0.000 A 
ATOM      9  C   UNL     1      21.826   2.679  50.578  0.00  0.00    +0.000 A 
ATOM     10  S   UNL     1      23.047   3.769  50.063  0.00  0.00    +0.000 S 
ATOM     11  C   UNL     1      22.441   3.798  48.464  0.00  0.00    +0.000 A 
ATOM     12  C   UNL     1      21.325   3.004  48.324  0.00  0.00    +0.000 A 
ATOM     13  C   UNL     1      20.969   2.347  49.539  0.00  0.00    +0.000 A 
ATOM     14  N   UNL     1      19.914   1.517  49.695  0.00  0.00    +0.000 NA
ATOM     15  C   UNL     1      18.536  -0.570  52.370  0.00  0.00    +0.000 C 
ATOM     16  C   UNL     1      17.060  -0.705  52.807  0.00  0.00    +0.000 C 
ATOM     17  H   UNL     1      16.491  -2.166  51.472  0.00  0.00    +0.000 HD
ENDROOT
BRANCH   8  18
ATOM     18  O   UNL     1      22.337   2.446  52.928  0.00  0.00    +0.000 OA
BRANCH  18  19
ATOM     19  C   UNL     1      23.583   1.865  53.039  0.00  0.00    +0.000 A 
ATOM     20  C   UNL     1      23.666   0.508  52.708  0.00  0.00    +0.000 A 
ATOM     21  C   UNL     1      24.894  -0.162  52.765  0.00  0.00    +0.000 A 
ATOM     22  C   UNL     1      26.046   0.526  53.153  0.00  0.00    +0.000 A 
ATOM     23  C   UNL     1      27.350  -0.134  53.235  0.00  0.00    +0.000 A 
ATOM     24  C   UNL     1      28.430   0.559  53.622  0.00  0.00    +0.000 A 
ATOM     25  C   UNL     1      28.342   1.999  53.978  0.00  0.00    +0.000 A 
ATOM     26  O   UNL     1      29.331   2.618  54.348  0.00  0.00    +0.000 OA
ATOM     27  N   UNL     1      27.108   2.580  53.869  0.00  0.00    +0.000 N 
ATOM     28  C   UNL     1      25.959   1.888  53.466  0.00  0.00    +0.000 A 
ATOM     29  C   UNL     1      24.743   2.563  53.389  0.00  0.00    +0.000 A 
ATOM     30  H   UNL     1      27.025   3.536  54.087  0.00  0.00    +0.000 HD
ENDBRANCH  18  19
ENDBRANCH   8  18
TORSDOF 2
ENDMDL
