
     RDKit          3D

 52 55  0  0  0  0  0  0  0  0999 V2000
   -6.5616    0.8155   -1.4162 C   0  0  0  0  0  0  0  0  0  0  0  0
   -5.9475    1.7065   -0.3195 C   0  0  0  0  0  0  0  0  0  0  0  0
   -6.3690    1.2152    1.0788 C   0  0  0  0  0  0  0  0  0  0  0  0
   -6.4497    3.1458   -0.5114 C   0  0  0  0  0  0  0  0  0  0  0  0
   -4.5168    1.7374   -0.4348 O   0  0  0  0  0  0  0  0  0  0  0  0
   -3.6494    0.6413   -0.3141 C   0  0  0  0  0  0  0  0  0  0  0  0
   -4.0975   -0.5200   -0.1139 O   0  0  0  0  0  0  0  0  0  0  0  0
   -2.2403    0.8573   -0.4664 N   0  0  0  0  0  0  0  0  0  0  0  0
   -1.2331   -0.1279   -0.1791 C   0  0  0  0  0  0  0  0  0  0  0  0
   -1.3777   -1.0392    0.8823 C   0  0  0  0  0  0  0  0  0  0  0  0
   -0.3713   -1.9701    1.1566 C   0  0  0  0  0  0  0  0  0  0  0  0
    0.8053   -1.9866    0.3946 C   0  0  0  0  0  0  0  0  0  0  0  0
    1.8534   -2.9848    0.6805 C   0  0  0  0  0  0  0  0  0  0  0  0
    1.6084   -4.3076    0.8439 N   0  0  0  0  0  0  0  0  0  0  0  0
    2.7500   -4.9761    0.9679 N   0  0  0  0  0  0  0  0  0  0  0  0
    3.7297   -4.0604    0.8932 C   0  0  0  0  0  0  0  0  0  0  0  0
    5.0594   -4.3041    0.9644 N   0  0  0  0  0  0  0  0  0  0  0  0
    5.9167   -3.2444    0.8787 C   0  0  0  0  0  0  0  0  0  0  0  0
    5.4342   -1.9686    0.7496 N   0  0  0  0  0  0  0  0  0  0  0  0
    4.0933   -1.7113    0.6717 C   0  0  0  0  0  0  0  0  0  0  0  0
    3.6108   -0.3606    0.6643 N   0  0  0  0  0  0  0  0  0  0  0  0
    4.3114    0.7342    0.0499 C   0  0  0  0  0  0  0  0  0  0  0  0
    5.1945    0.5291   -1.0269 C   0  0  0  0  0  0  0  0  0  0  0  0
    5.8423    1.6145   -1.6241 C   0  0  0  0  0  0  0  0  0  0  0  0
    5.6074    2.9121   -1.1631 C   0  0  0  0  0  0  0  0  0  0  0  0
    4.7170    3.1283   -0.1071 C   0  0  0  0  0  0  0  0  0  0  0  0
    4.4116    4.7590    0.4628 Cl  0  0  0  0  0  0  0  0  0  0  0  0
    4.0668    2.0440    0.4927 C   0  0  0  0  0  0  0  0  0  0  0  0
    3.2257   -2.8043    0.7280 C   0  0  0  0  0  0  0  0  0  0  0  0
    0.9495   -1.0798   -0.6667 C   0  0  0  0  0  0  0  0  0  0  0  0
   -0.0548   -0.1474   -0.9392 C   0  0  0  0  0  0  0  0  0  0  0  0
   -7.6702    0.8950   -1.4089 H   0  0  0  0  0  0  0  0  0  0  0  0
   -6.3008   -0.2517   -1.2650 H   0  0  0  0  0  0  0  0  0  0  0  0
   -6.1905    1.1278   -2.4159 H   0  0  0  0  0  0  0  0  0  0  0  0
   -7.4683    1.3117    1.2118 H   0  0  0  0  0  0  0  0  0  0  0  0
   -6.1043    0.1490    1.2304 H   0  0  0  0  0  0  0  0  0  0  0  0
   -5.8628    1.8159    1.8646 H   0  0  0  0  0  0  0  0  0  0  0  0
   -6.0105    3.8133    0.2610 H   0  0  0  0  0  0  0  0  0  0  0  0
   -7.5575    3.1959   -0.4336 H   0  0  0  0  0  0  0  0  0  0  0  0
   -6.1477    3.5293   -1.5099 H   0  0  0  0  0  0  0  0  0  0  0  0
   -1.9394    1.7632   -0.8917 H   0  0  0  0  0  0  0  0  0  0  0  0
   -2.2534   -1.0171    1.5169 H   0  0  0  0  0  0  0  0  0  0  0  0
   -0.5009   -2.6635    1.9787 H   0  0  0  0  0  0  0  0  0  0  0  0
    0.6687   -4.7627    0.8358 H   0  0  0  0  0  0  0  0  0  0  0  0
    6.9835   -3.4115    0.9330 H   0  0  0  0  0  0  0  0  0  0  0  0
    2.7455   -0.1493    1.2105 H   0  0  0  0  0  0  0  0  0  0  0  0
    5.3681   -0.4633   -1.4211 H   0  0  0  0  0  0  0  0  0  0  0  0
    6.5212    1.4501   -2.4509 H   0  0  0  0  0  0  0  0  0  0  0  0
    6.1112    3.7480   -1.6314 H   0  0  0  0  0  0  0  0  0  0  0  0
    3.3756    2.2194    1.3079 H   0  0  0  0  0  0  0  0  0  0  0  0
    1.8360   -1.0979   -1.2886 H   0  0  0  0  0  0  0  0  0  0  0  0
    0.0777    0.5518   -1.7554 H   0  0  0  0  0  0  0  0  0  0  0  0
  1  2  1  0
  2  3  1  0
  2  4  1  0
  2  5  1  0
  5  6  1  0
  6  7  2  0
  6  8  1  0
  8  9  1  0
  9 10  2  0
 10 11  1  0
 11 12  2  0
 12 13  1  0
 13 14  1  0
 14 15  1  0
 15 16  2  0
 16 17  1  0
 17 18  2  0
 18 19  1  0
 19 20  2  0
 20 21  1  0
 21 22  1  0
 22 23  2  0
 23 24  1  0
 24 25  2  0
 25 26  1  0
 26 27  1  0
 26 28  2  0
 20 29  1  0
 12 30  1  0
 30 31  2  0
 31  9  1  0
 29 13  2  0
 29 16  1  0
 28 22  1  0
  1 32  1  0
  1 33  1  0
  1 34  1  0
  3 35  1  0
  3 36  1  0
  3 37  1  0
  4 38  1  0
  4 39  1  0
  4 40  1  0
  8 41  1  0
 10 42  1  0
 11 43  1  0
 14 44  1  0
 18 45  1  0
 21 46  1  0
 23 47  1  0
 24 48  1  0
 25 49  1  0
 28 50  1  0
 30 51  1  0
 31 52  1  0
M  END
