REMARK  Name = 
REMARK  4 active torsions:
REMARK  status: ('A' for Active; 'I' for Inactive)
REMARK    1  A    between atoms: C_2  and  C_3
REMARK    2  A    between atoms: C_3  and  N_4
REMARK    3  A    between atoms: N_14  and  C_15
REMARK    4  A    between atoms: N_23  and  C_24
REMARK                            x       y       z     vdW  Elec       q    Type
REMARK                         _______ _______ _______ _____ _____    ______ ____
ROOT
ATOM      1  C   UNL     1       2.176  -2.209  -0.857  0.00  0.00    +0.000 A 
ATOM      2  C   UNL     1       1.054  -2.194  -1.682  0.00  0.00    +0.000 A 
ATOM      3  C   UNL     1       0.249  -3.324  -1.809  0.00  0.00    +0.000 A 
ATOM      4  C   UNL     1       0.524  -4.488  -1.124  0.00  0.00    +0.000 A 
ATOM      5  N   UNL     1      -0.375  -5.468  -1.199  0.00  0.00    +0.000 NA
ATOM      6  C   UNL     1      -0.142  -6.553  -0.463  0.00  0.00    +0.000 A 
ATOM      7  N   UNL     1       0.932  -6.764   0.300  0.00  0.00    +0.000 NA
ATOM      8  C   UNL     1       1.853  -5.780   0.341  0.00  0.00    +0.000 A 
ATOM      9  N   UNL     1       3.008  -5.995   1.130  0.00  0.00    +0.000 N 
ATOM     10  C   UNL     1       1.698  -4.566  -0.360  0.00  0.00    +0.000 A 
ATOM     11  C   UNL     1       2.554  -3.423  -0.273  0.00  0.00    +0.000 A 
ATOM     12  H   UNL     1       3.849  -5.602   0.801  0.00  0.00    +0.000 HD
ENDROOT
BRANCH   9  13
ATOM     13  C   UNL     1       3.078  -6.716   2.343  0.00  0.00    +0.000 A 
ATOM     14  C   UNL     1       1.996  -6.745   3.239  0.00  0.00    +0.000 A 
ATOM     15  C   UNL     1       2.131  -7.279   4.524  0.00  0.00    +0.000 A 
ATOM     16  C   UNL     1       3.353  -7.804   4.933  0.00  0.00    +0.000 A 
ATOM     17  C   UNL     1       4.422  -7.820   4.040  0.00  0.00    +0.000 A 
ATOM     18 BR   UNL     1       6.080  -8.549   4.587  0.00  0.00    +0.000 Br
ATOM     19  C   UNL     1       4.293  -7.280   2.757  0.00  0.00    +0.000 A 
ENDBRANCH   9  13
BRANCH   1  22
ATOM     20  O   UNL     1       1.154   0.503  -0.914  0.00  0.00    +0.000 OA
ATOM     21  C   UNL     1       2.314   0.248  -0.587  0.00  0.00    +0.000 C 
ATOM     22  N   UNL     1       2.885  -1.025  -0.547  0.00  0.00    +0.000 N 
ATOM     23  H   UNL     1       3.832  -1.103  -0.290  0.00  0.00    +0.000 HD
BRANCH  21  24
ATOM     24  C   UNL     1       3.245   1.387  -0.203  0.00  0.00    +0.000 C 
BRANCH  24  25
ATOM     25  N   UNL     1       3.622   1.326   1.192  0.00  0.00    +0.000 N 
ATOM     26  S   UNL     1       2.789   2.234   2.383  0.00  0.00    +0.000 S 
ATOM     27  C   UNL     1       4.012   1.804   3.589  0.00  0.00    +0.000 A 
ATOM     28  C   UNL     1       4.086   2.210   4.911  0.00  0.00    +0.000 A 
ATOM     29  C   UNL     1       5.189   1.806   5.672  0.00  0.00    +0.000 A 
ATOM     30  C   UNL     1       6.199   1.008   5.109  0.00  0.00    +0.000 A 
ATOM     31  C   UNL     1       6.104   0.579   3.784  0.00  0.00    +0.000 A 
ATOM     32  C   UNL     1       5.001   0.979   3.049  0.00  0.00    +0.000 A 
ATOM     33  C   UNL     1       4.734   0.652   1.640  0.00  0.00    +0.000 A 
ATOM     34  O   UNL     1       5.409  -0.130   0.978  0.00  0.00    +0.000 OA
ENDBRANCH  24  25
ENDBRANCH  21  24
ENDBRANCH   1  22
TORSDOF 4
