REMARK  Name = 
REMARK  2 active torsions:
REMARK  status: ('A' for Active; 'I' for Inactive)
REMARK    1  A    between atoms: C_1  and  C_2
REMARK    2  A    between atoms: C_6  and  N_7
REMARK                            x       y       z     vdW  Elec       q    Type
REMARK                         _______ _______ _______ _____ _____    ______ ____
ROOT
ATOM      1  N   UNL     1      -1.699  -2.480  -0.102  0.00  0.00    +0.000 N 
ATOM      2  C   UNL     1      -1.121  -3.765  -0.020  0.00  0.00    +0.000 A 
ATOM      3  N   UNL     1       0.008  -3.924   0.701  0.00  0.00    +0.000 NA
ATOM      4  C   UNL     1       0.582  -5.129   0.672  0.00  0.00    +0.000 A 
ATOM      5  N   UNL     1       0.152  -6.190  -0.016  0.00  0.00    +0.000 NA
ATOM      6  C   UNL     1      -0.971  -6.026  -0.728  0.00  0.00    +0.000 A 
ATOM      7  C   UNL     1      -1.442  -7.082  -1.484  0.00  0.00    +0.000 A 
ATOM      8  C   UNL     1      -2.620  -6.949  -2.200  0.00  0.00    +0.000 A 
ATOM      9  N   UNL     1      -3.091  -7.997  -2.983  0.00  0.00    +0.000 N 
ATOM     10  N   UNL     1      -3.327  -5.813  -2.231  0.00  0.00    +0.000 NA
ATOM     11  C   UNL     1      -2.836  -4.771  -1.526  0.00  0.00    +0.000 A 
ATOM     12  C   UNL     1      -1.679  -4.821  -0.748  0.00  0.00    +0.000 A 
ATOM     13  H   UNL     1      -2.668  -2.438  -0.272  0.00  0.00    +0.000 HD
ATOM     14  H   UNL     1      -2.610  -8.856  -2.998  0.00  0.00    +0.000 HD
ATOM     15  H   UNL     1      -3.906  -7.881  -3.523  0.00  0.00    +0.000 HD
ENDROOT
BRANCH   1  21
ATOM     16  C   UNL     1      -1.659   2.217   1.463  0.00  0.00    +0.000 C 
ATOM     17  C   UNL     1      -0.973   1.066   0.792  0.00  0.00    +0.000 A 
ATOM     18  C   UNL     1       0.342   1.187   0.330  0.00  0.00    +0.000 A 
ATOM     19  C   UNL     1       0.972   0.105  -0.280  0.00  0.00    +0.000 A 
ATOM     20  C   UNL     1       0.294  -1.105  -0.418  0.00  0.00    +0.000 A 
ATOM     21  C   UNL     1      -1.021  -1.253   0.037  0.00  0.00    +0.000 A 
ATOM     22  C   UNL     1      -1.648  -0.155   0.641  0.00  0.00    +0.000 A 
ENDBRANCH   1  21
TORSDOF 1
