MODEL 1
REMARK VINA RESULT:    -9.001      0.000      0.000
REMARK INTER + INTRA:         -11.057
REMARK INTER:                 -10.842
REMARK INTRA:                  -0.215
REMARK UNBOUND:                -0.215
REMARK  Name = 
REMARK  7 active torsions:
REMARK  status: ('A' for Active; 'I' for Inactive)
REMARK    1  A    between atoms: C_1  and  O_2
REMARK    2  A    between atoms: O_2  and  C_3
REMARK    3  A    between atoms: C_8  and  C_9
REMARK    4  A    between atoms: N_11  and  C_12
REMARK    5  A    between atoms: C_12  and  C_13
REMARK    6  A    between atoms: C_12  and  C_14
REMARK    7  A    between atoms: C_19  and  N_20
REMARK                            x       y       z     vdW  Elec       q    Type
REMARK                         _______ _______ _______ _____ _____    ______ ____
ROOT
ATOM      1  C   UNL     1      25.811  -0.328  53.390  0.00  0.00    +0.000 A 
ATOM      2  N   UNL     1      26.599  -1.412  53.183  0.00  0.00    +0.000 NA
ATOM      3  N   UNL     1      27.854  -0.919  53.184  0.00  0.00    +0.000 N 
ATOM      4  C   UNL     1      27.905   0.434  53.420  0.00  0.00    +0.000 A 
ATOM      5  N   UNL     1      29.005   1.199  53.537  0.00  0.00    +0.000 NA
ATOM      6  C   UNL     1      28.679   2.481  53.777  0.00  0.00    +0.000 A 
ATOM      7  N   UNL     1      27.453   3.029  53.885  0.00  0.00    +0.000 NA
ATOM      8  C   UNL     1      26.381   2.221  53.751  0.00  0.00    +0.000 A 
ATOM      9  C   UNL     1      26.598   0.851  53.526  0.00  0.00    +0.000 A 
ENDROOT
BRANCH   1  15
ATOM     10  C   UNL     1      19.363  -0.222  52.706  0.00  0.00    +0.000 A 
ATOM     11  C   UNL     1      19.959   0.284  51.554  0.00  0.00    +0.000 A 
ATOM     12  C   UNL     1      21.342   0.329  51.440  0.00  0.00    +0.000 A 
ATOM     13  C   UNL     1      22.163  -0.125  52.485  0.00  0.00    +0.000 A 
ATOM     14  C   UNL     1      23.555  -0.068  52.384  0.00  0.00    +0.000 A 
ATOM     15  C   UNL     1      24.367  -0.461  53.458  0.00  0.00    +0.000 A 
ATOM     16  C   UNL     1      23.754  -0.940  54.623  0.00  0.00    +0.000 A 
ATOM     17  C   UNL     1      22.376  -1.038  54.722  0.00  0.00    +0.000 A 
ATOM     18  C   UNL     1      21.561  -0.633  53.668  0.00  0.00    +0.000 A 
ATOM     19  C   UNL     1      20.165  -0.652  53.767  0.00  0.00    +0.000 A 
BRANCH  10  21
ATOM     20  C   UNL     1      17.481  -1.614  52.729  0.00  0.00    +0.000 C 
ATOM     21  O   UNL     1      18.010  -0.299  52.896  0.00  0.00    +0.000 OA
ENDBRANCH  10  21
ENDBRANCH   1  15
BRANCH   3  22
ATOM     22  C   UNL     1      28.989  -1.812  52.972  0.00  0.00    +0.000 C 
ATOM     23  C   UNL     1      30.147  -1.487  53.916  0.00  0.00    +0.000 C 
ATOM     24  C   UNL     1      28.582  -3.280  53.093  0.00  0.00    +0.000 C 
ENDBRANCH   3  22
BRANCH   8  25
ATOM     25  N   UNL     1      25.147   2.834  53.867  0.00  0.00    +0.000 N 
ATOM     26  H   UNL     1      24.582   2.660  54.655  0.00  0.00    +0.000 HD
ATOM     27  H   UNL     1      24.833   3.445  53.161  0.00  0.00    +0.000 HD
ENDBRANCH   8  25
TORSDOF 4
ENDMDL
MODEL 2
REMARK VINA RESULT:    -8.609      5.144      8.214
REMARK INTER + INTRA:         -10.586
REMARK INTER:                  -9.948
REMARK INTRA:                  -0.638
REMARK UNBOUND:                -0.215
REMARK  Name = 
REMARK  7 active torsions:
REMARK  status: ('A' for Active; 'I' for Inactive)
REMARK    1  A    between atoms: C_1  and  O_2
REMARK    2  A    between atoms: O_2  and  C_3
REMARK    3  A    between atoms: C_8  and  C_9
REMARK    4  A    between atoms: N_11  and  C_12
REMARK    5  A    between atoms: C_12  and  C_13
REMARK    6  A    between atoms: C_12  and  C_14
REMARK    7  A    between atoms: C_19  and  N_20
REMARK                            x       y       z     vdW  Elec       q    Type
REMARK                         _______ _______ _______ _____ _____    ______ ____
ROOT
ATOM      1  C   UNL     1      24.020   2.632  51.052  0.00  0.00    +0.000 A 
ATOM      2  N   UNL     1      22.827   2.230  50.552  0.00  0.00    +0.000 NA
ATOM      3  N   UNL     1      22.538   1.105  51.237  0.00  0.00    +0.000 N 
ATOM      4  C   UNL     1      23.482   0.789  52.185  0.00  0.00    +0.000 A 
ATOM      5  N   UNL     1      23.448  -0.232  53.058  0.00  0.00    +0.000 NA
ATOM      6  C   UNL     1      24.538  -0.231  53.846  0.00  0.00    +0.000 A 
ATOM      7  N   UNL     1      25.583   0.619  53.831  0.00  0.00    +0.000 NA
ATOM      8  C   UNL     1      25.574   1.623  52.929  0.00  0.00    +0.000 A 
ATOM      9  C   UNL     1      24.469   1.741  52.069  0.00  0.00    +0.000 A 
ENDROOT
BRANCH   1  15
ATOM     10  C   UNL     1      27.817   7.255  48.548  0.00  0.00    +0.000 A 
ATOM     11  C   UNL     1      28.325   6.004  48.206  0.00  0.00    +0.000 A 
ATOM     12  C   UNL     1      27.662   4.847  48.595  0.00  0.00    +0.000 A 
ATOM     13  C   UNL     1      26.477   4.916  49.345  0.00  0.00    +0.000 A 
ATOM     14  C   UNL     1      25.813   3.757  49.753  0.00  0.00    +0.000 A 
ATOM     15  C   UNL     1      24.667   3.834  50.558  0.00  0.00    +0.000 A 
ATOM     16  C   UNL     1      24.184   5.098  50.919  0.00  0.00    +0.000 A 
ATOM     17  C   UNL     1      24.810   6.257  50.489  0.00  0.00    +0.000 A 
ATOM     18  C   UNL     1      25.959   6.190  49.706  0.00  0.00    +0.000 A 
ATOM     19  C   UNL     1      26.654   7.342  49.318  0.00  0.00    +0.000 A 
BRANCH  10  21
ATOM     20  C   UNL     1      28.927   9.166  49.319  0.00  0.00    +0.000 C 
ATOM     21  O   UNL     1      28.410   8.440  48.205  0.00  0.00    +0.000 OA
ENDBRANCH  10  21
ENDBRANCH   1  15
BRANCH   3  22
ATOM     22  C   UNL     1      21.308   0.372  50.952  0.00  0.00    +0.000 C 
ATOM     23  C   UNL     1      20.255   0.591  52.037  0.00  0.00    +0.000 C 
ATOM     24  C   UNL     1      20.751   0.722  49.573  0.00  0.00    +0.000 C 
ENDBRANCH   3  22
BRANCH   8  25
ATOM     25  N   UNL     1      26.672   2.464  52.953  0.00  0.00    +0.000 N 
ATOM     26  H   UNL     1      27.480   2.232  52.441  0.00  0.00    +0.000 HD
ATOM     27  H   UNL     1      26.645   3.293  53.483  0.00  0.00    +0.000 HD
ENDBRANCH   8  25
TORSDOF 4
ENDMDL
MODEL 3
REMARK VINA RESULT:    -8.599      1.711      2.005
REMARK INTER + INTRA:         -10.574
REMARK INTER:                 -10.725
REMARK INTRA:                   0.151
REMARK UNBOUND:                -0.215
REMARK  Name = 
REMARK  7 active torsions:
REMARK  status: ('A' for Active; 'I' for Inactive)
REMARK    1  A    between atoms: C_1  and  O_2
REMARK    2  A    between atoms: O_2  and  C_3
REMARK    3  A    between atoms: C_8  and  C_9
REMARK    4  A    between atoms: N_11  and  C_12
REMARK    5  A    between atoms: C_12  and  C_13
REMARK    6  A    between atoms: C_12  and  C_14
REMARK    7  A    between atoms: C_19  and  N_20
REMARK                            x       y       z     vdW  Elec       q    Type
REMARK                         _______ _______ _______ _____ _____    ______ ____
ROOT
ATOM      1  C   UNL     1      24.731   0.290  52.816  0.00  0.00    +0.000 A 
ATOM      2  N   UNL     1      25.778  -0.379  53.358  0.00  0.00    +0.000 NA
ATOM      3  N   UNL     1      26.865   0.284  52.912  0.00  0.00    +0.000 N 
ATOM      4  C   UNL     1      26.555   1.374  52.134  0.00  0.00    +0.000 A 
ATOM      5  N   UNL     1      27.412   2.259  51.594  0.00  0.00    +0.000 NA
ATOM      6  C   UNL     1      26.756   3.205  50.901  0.00  0.00    +0.000 A 
ATOM      7  N   UNL     1      25.430   3.330  50.697  0.00  0.00    +0.000 NA
ATOM      8  C   UNL     1      24.612   2.411  51.253  0.00  0.00    +0.000 A 
ATOM      9  C   UNL     1      25.183   1.387  52.028  0.00  0.00    +0.000 A 
ENDROOT
BRANCH   1  15
ATOM     10  C   UNL     1      18.345  -0.810  53.098  0.00  0.00    +0.000 A 
ATOM     11  C   UNL     1      18.640  -0.088  51.944  0.00  0.00    +0.000 A 
ATOM     12  C   UNL     1      19.955   0.239  51.636  0.00  0.00    +0.000 A 
ATOM     13  C   UNL     1      21.007  -0.142  52.485  0.00  0.00    +0.000 A 
ATOM     14  C   UNL     1      22.329   0.196  52.191  0.00  0.00    +0.000 A 
ATOM     15  C   UNL     1      23.366  -0.130  53.077  0.00  0.00    +0.000 A 
ATOM     16  C   UNL     1      23.051  -0.830  54.249  0.00  0.00    +0.000 A 
ATOM     17  C   UNL     1      21.749  -1.206  54.535  0.00  0.00    +0.000 A 
ATOM     18  C   UNL     1      20.711  -0.870  53.671  0.00  0.00    +0.000 A 
ATOM     19  C   UNL     1      19.377  -1.173  53.968  0.00  0.00    +0.000 A 
BRANCH  10  21
ATOM     20  C   UNL     1      16.055  -0.545  52.697  0.00  0.00    +0.000 C 
ATOM     21  O   UNL     1      17.079  -1.169  53.471  0.00  0.00    +0.000 OA
ENDBRANCH  10  21
ENDBRANCH   1  15
BRANCH   3  22
ATOM     22  C   UNL     1      28.201  -0.169  53.287  0.00  0.00    +0.000 C 
ATOM     23  C   UNL     1      28.595   0.327  54.679  0.00  0.00    +0.000 C 
ATOM     24  C   UNL     1      28.328  -1.689  53.195  0.00  0.00    +0.000 C 
ENDBRANCH   3  22
BRANCH   8  25
ATOM     25  N   UNL     1      23.261   2.582  51.011  0.00  0.00    +0.000 N 
ATOM     26  H   UNL     1      22.924   2.588  50.086  0.00  0.00    +0.000 HD
ATOM     27  H   UNL     1      22.637   2.698  51.764  0.00  0.00    +0.000 HD
ENDBRANCH   8  25
TORSDOF 4
ENDMDL
MODEL 4
REMARK VINA RESULT:    -8.557      5.155      8.075
REMARK INTER + INTRA:         -10.523
REMARK INTER:                  -9.802
REMARK INTRA:                  -0.721
REMARK UNBOUND:                -0.215
REMARK  Name = 
REMARK  7 active torsions:
REMARK  status: ('A' for Active; 'I' for Inactive)
REMARK    1  A    between atoms: C_1  and  O_2
REMARK    2  A    between atoms: O_2  and  C_3
REMARK    3  A    between atoms: C_8  and  C_9
REMARK    4  A    between atoms: N_11  and  C_12
REMARK    5  A    between atoms: C_12  and  C_13
REMARK    6  A    between atoms: C_12  and  C_14
REMARK    7  A    between atoms: C_19  and  N_20
REMARK                            x       y       z     vdW  Elec       q    Type
REMARK                         _______ _______ _______ _____ _____    ______ ____
ROOT
ATOM      1  C   UNL     1      23.518   4.238  49.549  0.00  0.00    +0.000 A 
ATOM      2  N   UNL     1      22.880   3.848  48.418  0.00  0.00    +0.000 NA
ATOM      3  N   UNL     1      22.163   4.929  48.050  0.00  0.00    +0.000 N 
ATOM      4  C   UNL     1      22.344   6.010  48.880  0.00  0.00    +0.000 A 
ATOM      5  N   UNL     1      21.814   7.238  48.744  0.00  0.00    +0.000 NA
ATOM      6  C   UNL     1      22.216   8.050  49.737  0.00  0.00    +0.000 A 
ATOM      7  N   UNL     1      23.019   7.766  50.780  0.00  0.00    +0.000 NA
ATOM      8  C   UNL     1      23.519   6.516  50.877  0.00  0.00    +0.000 A 
ATOM      9  C   UNL     1      23.191   5.585  49.876  0.00  0.00    +0.000 A 
ENDROOT
BRANCH   1  15
ATOM     10  C   UNL     1      26.498  -0.117  53.320  0.00  0.00    +0.000 A 
ATOM     11  C   UNL     1      25.118  -0.243  53.468  0.00  0.00    +0.000 A 
ATOM     12  C   UNL     1      24.256   0.558  52.730  0.00  0.00    +0.000 A 
ATOM     13  C   UNL     1      24.757   1.513  51.831  0.00  0.00    +0.000 A 
ATOM     14  C   UNL     1      23.898   2.334  51.097  0.00  0.00    +0.000 A 
ATOM     15  C   UNL     1      24.407   3.329  50.251  0.00  0.00    +0.000 A 
ATOM     16  C   UNL     1      25.796   3.465  50.134  0.00  0.00    +0.000 A 
ATOM     17  C   UNL     1      26.661   2.633  50.826  0.00  0.00    +0.000 A 
ATOM     18  C   UNL     1      26.165   1.654  51.683  0.00  0.00    +0.000 A 
ATOM     19  C   UNL     1      27.014   0.848  52.450  0.00  0.00    +0.000 A 
BRANCH  10  21
ATOM     20  C   UNL     1      28.568  -0.133  54.412  0.00  0.00    +0.000 C 
ATOM     21  O   UNL     1      27.411  -0.866  54.010  0.00  0.00    +0.000 OA
ENDBRANCH  10  21
ENDBRANCH   1  15
BRANCH   3  22
ATOM     22  C   UNL     1      21.321   4.875  46.858  0.00  0.00    +0.000 C 
ATOM     23  C   UNL     1      21.883   3.912  45.813  0.00  0.00    +0.000 C 
ATOM     24  C   UNL     1      19.876   4.520  47.204  0.00  0.00    +0.000 C 
ENDBRANCH   3  22
BRANCH   8  25
ATOM     25  N   UNL     1      24.335   6.276  51.967  0.00  0.00    +0.000 N 
ATOM     26  H   UNL     1      24.152   5.511  52.559  0.00  0.00    +0.000 HD
ATOM     27  H   UNL     1      25.098   6.871  52.151  0.00  0.00    +0.000 HD
ENDBRANCH   8  25
TORSDOF 4
ENDMDL
MODEL 5
REMARK VINA RESULT:    -8.348      4.414      5.963
REMARK INTER + INTRA:         -10.272
REMARK INTER:                  -9.573
REMARK INTRA:                  -0.698
REMARK UNBOUND:                -0.215
REMARK  Name = 
REMARK  7 active torsions:
REMARK  status: ('A' for Active; 'I' for Inactive)
REMARK    1  A    between atoms: C_1  and  O_2
REMARK    2  A    between atoms: O_2  and  C_3
REMARK    3  A    between atoms: C_8  and  C_9
REMARK    4  A    between atoms: N_11  and  C_12
REMARK    5  A    between atoms: C_12  and  C_13
REMARK    6  A    between atoms: C_12  and  C_14
REMARK    7  A    between atoms: C_19  and  N_20
REMARK                            x       y       z     vdW  Elec       q    Type
REMARK                         _______ _______ _______ _____ _____    ______ ____
ROOT
ATOM      1  C   UNL     1      24.150   1.436  51.898  0.00  0.00    +0.000 A 
ATOM      2  N   UNL     1      25.428   0.996  52.008  0.00  0.00    +0.000 NA
ATOM      3  N   UNL     1      25.389   0.103  53.018  0.00  0.00    +0.000 N 
ATOM      4  C   UNL     1      24.128  -0.074  53.537  0.00  0.00    +0.000 A 
ATOM      5  N   UNL     1      23.761  -0.932  54.506  0.00  0.00    +0.000 NA
ATOM      6  C   UNL     1      22.442  -0.843  54.754  0.00  0.00    +0.000 A 
ATOM      7  N   UNL     1      21.533  -0.030  54.183  0.00  0.00    +0.000 NA
ATOM      8  C   UNL     1      21.954   0.819  53.221  0.00  0.00    +0.000 A 
ATOM      9  C   UNL     1      23.310   0.796  52.854  0.00  0.00    +0.000 A 
ENDROOT
BRANCH   1  15
ATOM     10  C   UNL     1      22.244   4.880  46.744  0.00  0.00    +0.000 A 
ATOM     11  C   UNL     1      21.852   3.553  46.585  0.00  0.00    +0.000 A 
ATOM     12  C   UNL     1      22.111   2.619  47.580  0.00  0.00    +0.000 A 
ATOM     13  C   UNL     1      22.781   2.992  48.756  0.00  0.00    +0.000 A 
ATOM     14  C   UNL     1      23.060   2.056  49.755  0.00  0.00    +0.000 A 
ATOM     15  C   UNL     1      23.787   2.422  50.897  0.00  0.00    +0.000 A 
ATOM     16  C   UNL     1      24.202   3.753  51.029  0.00  0.00    +0.000 A 
ATOM     17  C   UNL     1      23.899   4.701  50.066  0.00  0.00    +0.000 A 
ATOM     18  C   UNL     1      23.194   4.343  48.920  0.00  0.00    +0.000 A 
ATOM     19  C   UNL     1      22.936   5.262  47.896  0.00  0.00    +0.000 A 
BRANCH  10  21
ATOM     20  C   UNL     1      21.474   5.370  44.588  0.00  0.00    +0.000 C 
ATOM     21  O   UNL     1      22.027   5.857  45.811  0.00  0.00    +0.000 OA
ENDBRANCH  10  21
ENDBRANCH   1  15
BRANCH   3  22
ATOM     22  C   UNL     1      26.610  -0.578  53.437  0.00  0.00    +0.000 C 
ATOM     23  C   UNL     1      26.872  -1.831  52.603  0.00  0.00    +0.000 C 
ATOM     24  C   UNL     1      27.817   0.359  53.407  0.00  0.00    +0.000 C 
ENDBRANCH   3  22
BRANCH   8  25
ATOM     25  N   UNL     1      20.982   1.634  52.670  0.00  0.00    +0.000 N 
ATOM     26  H   UNL     1      20.149   1.809  53.165  0.00  0.00    +0.000 HD
ATOM     27  H   UNL     1      21.124   2.039  51.784  0.00  0.00    +0.000 HD
ENDBRANCH   8  25
TORSDOF 4
ENDMDL
MODEL 6
REMARK VINA RESULT:    -8.057      4.681      6.405
REMARK INTER + INTRA:          -9.920
REMARK INTER:                  -9.331
REMARK INTRA:                  -0.589
REMARK UNBOUND:                -0.215
REMARK  Name = 
REMARK  7 active torsions:
REMARK  status: ('A' for Active; 'I' for Inactive)
REMARK    1  A    between atoms: C_1  and  O_2
REMARK    2  A    between atoms: O_2  and  C_3
REMARK    3  A    between atoms: C_8  and  C_9
REMARK    4  A    between atoms: N_11  and  C_12
REMARK    5  A    between atoms: C_12  and  C_13
REMARK    6  A    between atoms: C_12  and  C_14
REMARK    7  A    between atoms: C_19  and  N_20
REMARK                            x       y       z     vdW  Elec       q    Type
REMARK                         _______ _______ _______ _____ _____    ______ ____
ROOT
ATOM      1  C   UNL     1      24.040   1.852  52.512  0.00  0.00    +0.000 A 
ATOM      2  N   UNL     1      23.002   1.086  52.928  0.00  0.00    +0.000 NA
ATOM      3  N   UNL     1      23.582  -0.046  53.378  0.00  0.00    +0.000 N 
ATOM      4  C   UNL     1      24.954  -0.021  53.301  0.00  0.00    +0.000 A 
ATOM      5  N   UNL     1      25.810  -0.970  53.720  0.00  0.00    +0.000 NA
ATOM      6  C   UNL     1      27.084  -0.605  53.495  0.00  0.00    +0.000 A 
ATOM      7  N   UNL     1      27.545   0.522  52.918  0.00  0.00    +0.000 NA
ATOM      8  C   UNL     1      26.645   1.440  52.506  0.00  0.00    +0.000 A 
ATOM      9  C   UNL     1      25.279   1.181  52.716  0.00  0.00    +0.000 A 
ENDROOT
BRANCH   1  15
ATOM     10  C   UNL     1      23.426   7.271  49.002  0.00  0.00    +0.000 A 
ATOM     11  C   UNL     1      23.650   6.191  48.151  0.00  0.00    +0.000 A 
ATOM     12  C   UNL     1      23.777   4.907  48.664  0.00  0.00    +0.000 A 
ATOM     13  C   UNL     1      23.691   4.674  50.046  0.00  0.00    +0.000 A 
ATOM     14  C   UNL     1      23.833   3.388  50.572  0.00  0.00    +0.000 A 
ATOM     15  C   UNL     1      23.812   3.174  51.957  0.00  0.00    +0.000 A 
ATOM     16  C   UNL     1      23.615   4.274  52.803  0.00  0.00    +0.000 A 
ATOM     17  C   UNL     1      23.434   5.549  52.295  0.00  0.00    +0.000 A 
ATOM     18  C   UNL     1      23.472   5.774  50.922  0.00  0.00    +0.000 A 
ATOM     19  C   UNL     1      23.365   7.061  50.383  0.00  0.00    +0.000 A 
BRANCH  10  21
ATOM     20  C   UNL     1      24.535   9.210  48.304  0.00  0.00    +0.000 C 
ATOM     21  O   UNL     1      23.291   8.564  48.575  0.00  0.00    +0.000 OA
ENDBRANCH  10  21
ENDBRANCH   1  15
BRANCH   3  22
ATOM     22  C   UNL     1      22.756  -1.131  53.900  0.00  0.00    +0.000 C 
ATOM     23  C   UNL     1      22.943  -1.307  55.407  0.00  0.00    +0.000 C 
ATOM     24  C   UNL     1      21.281  -0.934  53.554  0.00  0.00    +0.000 C 
ENDBRANCH   3  22
BRANCH   8  25
ATOM     25  N   UNL     1      27.170   2.576  51.918  0.00  0.00    +0.000 N 
ATOM     26  H   UNL     1      27.140   3.436  52.396  0.00  0.00    +0.000 HD
ATOM     27  H   UNL     1      27.573   2.524  51.021  0.00  0.00    +0.000 HD
ENDBRANCH   8  25
TORSDOF 4
ENDMDL
MODEL 7
REMARK VINA RESULT:    -8.056      2.583      4.158
REMARK INTER + INTRA:          -9.920
REMARK INTER:                  -9.561
REMARK INTRA:                  -0.358
REMARK UNBOUND:                -0.215
REMARK  Name = 
REMARK  7 active torsions:
REMARK  status: ('A' for Active; 'I' for Inactive)
REMARK    1  A    between atoms: C_1  and  O_2
REMARK    2  A    between atoms: O_2  and  C_3
REMARK    3  A    between atoms: C_8  and  C_9
REMARK    4  A    between atoms: N_11  and  C_12
REMARK    5  A    between atoms: C_12  and  C_13
REMARK    6  A    between atoms: C_12  and  C_14
REMARK    7  A    between atoms: C_19  and  N_20
REMARK                            x       y       z     vdW  Elec       q    Type
REMARK                         _______ _______ _______ _____ _____    ______ ____
ROOT
ATOM      1  C   UNL     1      22.368   1.235  52.525  0.00  0.00    +0.000 A 
ATOM      2  N   UNL     1      23.578   0.635  52.637  0.00  0.00    +0.000 NA
ATOM      3  N   UNL     1      24.465   1.636  52.468  0.00  0.00    +0.000 N 
ATOM      4  C   UNL     1      23.872   2.863  52.290  0.00  0.00    +0.000 A 
ATOM      5  N   UNL     1      24.485   4.052  52.153  0.00  0.00    +0.000 NA
ATOM      6  C   UNL     1      23.590   5.044  52.007  0.00  0.00    +0.000 A 
ATOM      7  N   UNL     1      22.246   4.963  51.969  0.00  0.00    +0.000 NA
ATOM      8  C   UNL     1      21.678   3.745  52.101  0.00  0.00    +0.000 A 
ATOM      9  C   UNL     1      22.516   2.632  52.291  0.00  0.00    +0.000 A 
ENDROOT
BRANCH   1  15
ATOM     10  C   UNL     1      16.485  -1.477  52.222  0.00  0.00    +0.000 A 
ATOM     11  C   UNL     1      16.672  -0.654  51.115  0.00  0.00    +0.000 A 
ATOM     12  C   UNL     1      17.877   0.012  50.930  0.00  0.00    +0.000 A 
ATOM     13  C   UNL     1      18.921  -0.123  51.860  0.00  0.00    +0.000 A 
ATOM     14  C   UNL     1      20.130   0.556  51.690  0.00  0.00    +0.000 A 
ATOM     15  C   UNL     1      21.143   0.468  52.656  0.00  0.00    +0.000 A 
ATOM     16  C   UNL     1      20.929  -0.340  53.780  0.00  0.00    +0.000 A 
ATOM     17  C   UNL     1      19.751  -1.050  53.943  0.00  0.00    +0.000 A 
ATOM     18  C   UNL     1      18.732  -0.953  52.998  0.00  0.00    +0.000 A 
ATOM     19  C   UNL     1      17.503  -1.601  53.171  0.00  0.00    +0.000 A 
BRANCH  10  21
ATOM     20  C   UNL     1      14.804  -2.842  51.334  0.00  0.00    +0.000 C 
ATOM     21  O   UNL     1      15.329  -2.165  52.475  0.00  0.00    +0.000 OA
ENDBRANCH  10  21
ENDBRANCH   1  15
BRANCH   3  22
ATOM     22  C   UNL     1      25.898   1.357  52.511  0.00  0.00    +0.000 C 
ATOM     23  C   UNL     1      26.525   1.822  53.825  0.00  0.00    +0.000 C 
ATOM     24  C   UNL     1      26.191  -0.121  52.260  0.00  0.00    +0.000 C 
ENDBRANCH   3  22
BRANCH   8  25
ATOM     25  N   UNL     1      20.296   3.716  52.051  0.00  0.00    +0.000 N 
ATOM     26  H   UNL     1      19.770   4.314  52.631  0.00  0.00    +0.000 HD
ATOM     27  H   UNL     1      19.839   3.098  51.436  0.00  0.00    +0.000 HD
ENDBRANCH   8  25
TORSDOF 4
ENDMDL
MODEL 8
REMARK VINA RESULT:    -8.014      5.881      8.889
REMARK INTER + INTRA:          -9.869
REMARK INTER:                  -9.259
REMARK INTRA:                  -0.609
REMARK UNBOUND:                -0.215
REMARK  Name = 
REMARK  7 active torsions:
REMARK  status: ('A' for Active; 'I' for Inactive)
REMARK    1  A    between atoms: C_1  and  O_2
REMARK    2  A    between atoms: O_2  and  C_3
REMARK    3  A    between atoms: C_8  and  C_9
REMARK    4  A    between atoms: N_11  and  C_12
REMARK    5  A    between atoms: C_12  and  C_13
REMARK    6  A    between atoms: C_12  and  C_14
REMARK    7  A    between atoms: C_19  and  N_20
REMARK                            x       y       z     vdW  Elec       q    Type
REMARK                         _______ _______ _______ _____ _____    ______ ____
ROOT
ATOM      1  C   UNL     1      24.109   3.089  50.294  0.00  0.00    +0.000 A 
ATOM      2  N   UNL     1      24.458   2.372  51.390  0.00  0.00    +0.000 NA
ATOM      3  N   UNL     1      23.505   1.422  51.485  0.00  0.00    +0.000 N 
ATOM      4  C   UNL     1      22.579   1.479  50.470  0.00  0.00    +0.000 A 
ATOM      5  N   UNL     1      21.549   0.640  50.260  0.00  0.00    +0.000 NA
ATOM      6  C   UNL     1      20.854   0.992  49.165  0.00  0.00    +0.000 A 
ATOM      7  N   UNL     1      21.064   2.034  48.336  0.00  0.00    +0.000 NA
ATOM      8  C   UNL     1      22.106   2.853  48.595  0.00  0.00    +0.000 A 
ATOM      9  C   UNL     1      22.925   2.566  49.701  0.00  0.00    +0.000 A 
ENDROOT
BRANCH   1  15
ATOM     10  C   UNL     1      28.587   7.312  48.249  0.00  0.00    +0.000 A 
ATOM     11  C   UNL     1      29.056   6.014  48.062  0.00  0.00    +0.000 A 
ATOM     12  C   UNL     1      28.258   4.925  48.389  0.00  0.00    +0.000 A 
ATOM     13  C   UNL     1      26.971   5.112  48.921  0.00  0.00    +0.000 A 
ATOM     14  C   UNL     1      26.169   4.023  49.267  0.00  0.00    +0.000 A 
ATOM     15  C   UNL     1      24.913   4.218  49.858  0.00  0.00    +0.000 A 
ATOM     16  C   UNL     1      24.466   5.529  50.067  0.00  0.00    +0.000 A 
ATOM     17  C   UNL     1      25.234   6.619  49.694  0.00  0.00    +0.000 A 
ATOM     18  C   UNL     1      26.491   6.435  49.123  0.00  0.00    +0.000 A 
ATOM     19  C   UNL     1      27.320   7.516  48.803  0.00  0.00    +0.000 A 
BRANCH  10  21
ATOM     20  C   UNL     1      29.189   9.469  48.929  0.00  0.00    +0.000 C 
ATOM     21  O   UNL     1      29.311   8.435  47.953  0.00  0.00    +0.000 OA
ENDBRANCH  10  21
ENDBRANCH   1  15
BRANCH   3  22
ATOM     22  C   UNL     1      23.545   0.455  52.577  0.00  0.00    +0.000 C 
ATOM     23  C   UNL     1      24.873   0.511  53.332  0.00  0.00    +0.000 C 
ATOM     24  C   UNL     1      22.367   0.634  53.533  0.00  0.00    +0.000 C 
ENDBRANCH   3  22
BRANCH   8  25
ATOM     25  N   UNL     1      22.275   3.908  47.717  0.00  0.00    +0.000 N 
ATOM     26  H   UNL     1      22.876   4.651  47.951  0.00  0.00    +0.000 HD
ATOM     27  H   UNL     1      21.794   3.915  46.859  0.00  0.00    +0.000 HD
ENDBRANCH   8  25
TORSDOF 4
ENDMDL
MODEL 9
REMARK VINA RESULT:    -7.968      4.674      6.262
REMARK INTER + INTRA:          -9.813
REMARK INTER:                  -9.090
REMARK INTRA:                  -0.723
REMARK UNBOUND:                -0.215
REMARK  Name = 
REMARK  7 active torsions:
REMARK  status: ('A' for Active; 'I' for Inactive)
REMARK    1  A    between atoms: C_1  and  O_2
REMARK    2  A    between atoms: O_2  and  C_3
REMARK    3  A    between atoms: C_8  and  C_9
REMARK    4  A    between atoms: N_11  and  C_12
REMARK    5  A    between atoms: C_12  and  C_13
REMARK    6  A    between atoms: C_12  and  C_14
REMARK    7  A    between atoms: C_19  and  N_20
REMARK                            x       y       z     vdW  Elec       q    Type
REMARK                         _______ _______ _______ _____ _____    ______ ____
ROOT
ATOM      1  C   UNL     1      24.303   1.580  52.057  0.00  0.00    +0.000 A 
ATOM      2  N   UNL     1      25.550   1.053  52.125  0.00  0.00    +0.000 NA
ATOM      3  N   UNL     1      25.442   0.053  53.024  0.00  0.00    +0.000 N 
ATOM      4  C   UNL     1      24.165  -0.105  53.508  0.00  0.00    +0.000 A 
ATOM      5  N   UNL     1      23.732  -1.045  54.368  0.00  0.00    +0.000 NA
ATOM      6  C   UNL     1      22.418  -0.905  54.614  0.00  0.00    +0.000 A 
ATOM      7  N   UNL     1      21.568   0.024  54.134  0.00  0.00    +0.000 NA
ATOM      8  C   UNL     1      22.053   0.951  53.281  0.00  0.00    +0.000 A 
ATOM      9  C   UNL     1      23.412   0.887  52.925  0.00  0.00    +0.000 A 
ENDROOT
BRANCH   1  15
ATOM     10  C   UNL     1      23.111   7.236  49.115  0.00  0.00    +0.000 A 
ATOM     11  C   UNL     1      23.593   7.475  50.399  0.00  0.00    +0.000 A 
ATOM     12  C   UNL     1      23.960   6.416  51.220  0.00  0.00    +0.000 A 
ATOM     13  C   UNL     1      23.844   5.089  50.775  0.00  0.00    +0.000 A 
ATOM     14  C   UNL     1      24.196   4.019  51.600  0.00  0.00    +0.000 A 
ATOM     15  C   UNL     1      24.015   2.696  51.173  0.00  0.00    +0.000 A 
ATOM     16  C   UNL     1      23.501   2.469  49.890  0.00  0.00    +0.000 A 
ATOM     17  C   UNL     1      23.183   3.521  49.046  0.00  0.00    +0.000 A 
ATOM     18  C   UNL     1      23.342   4.838  49.469  0.00  0.00    +0.000 A 
ATOM     19  C   UNL     1      22.962   5.920  48.666  0.00  0.00    +0.000 A 
BRANCH  10  21
ATOM     20  C   UNL     1      21.470   8.815  48.572  0.00  0.00    +0.000 C 
ATOM     21  O   UNL     1      22.727   8.222  48.247  0.00  0.00    +0.000 OA
ENDBRANCH  10  21
ENDBRANCH   1  15
BRANCH   3  22
ATOM     22  C   UNL     1      26.613  -0.746  53.371  0.00  0.00    +0.000 C 
ATOM     23  C   UNL     1      26.829  -1.890  52.381  0.00  0.00    +0.000 C 
ATOM     24  C   UNL     1      27.869   0.116  53.489  0.00  0.00    +0.000 C 
ENDBRANCH   3  22
BRANCH   8  25
ATOM     25  N   UNL     1      21.141   1.882  52.821  0.00  0.00    +0.000 N 
ATOM     26  H   UNL     1      20.603   2.402  53.461  0.00  0.00    +0.000 HD
ATOM     27  H   UNL     1      21.030   2.026  51.853  0.00  0.00    +0.000 HD
ENDBRANCH   8  25
TORSDOF 4
ENDMDL
