REMARK  Name = 
REMARK  7 active torsions:
REMARK  status: ('A' for Active; 'I' for Inactive)
REMARK    1  A    between atoms: C_1  and  O_2
REMARK    2  A    between atoms: O_2  and  C_3
REMARK    3  A    between atoms: C_8  and  C_9
REMARK    4  A    between atoms: N_11  and  C_12
REMARK    5  A    between atoms: C_12  and  C_13
REMARK    6  A    between atoms: C_12  and  C_14
REMARK    7  A    between atoms: C_19  and  N_20
REMARK                            x       y       z     vdW  Elec       q    Type
REMARK                         _______ _______ _______ _____ _____    ______ ____
ROOT
ATOM      1  C   UNL     1       0.801   6.945   5.429  0.00  0.00    +0.000 A 
ATOM      2  N   UNL     1       0.236   6.941   6.661  0.00  0.00    +0.000 NA
ATOM      3  N   UNL     1       0.682   8.076   7.237  0.00  0.00    +0.000 N 
ATOM      4  C   UNL     1       1.482   8.827   6.409  0.00  0.00    +0.000 A 
ATOM      5  N   UNL     1       2.028  10.027   6.674  0.00  0.00    +0.000 NA
ATOM      6  C   UNL     1       2.745  10.473   5.628  0.00  0.00    +0.000 A 
ATOM      7  N   UNL     1       2.965   9.871   4.443  0.00  0.00    +0.000 NA
ATOM      8  C   UNL     1       2.402   8.663   4.229  0.00  0.00    +0.000 A 
ATOM      9  C   UNL     1       1.603   8.107   5.243  0.00  0.00    +0.000 A 
ENDROOT
BRANCH   1  15
ATOM     10  C   UNL     1      -1.318   1.923   1.914  0.00  0.00    +0.000 A 
ATOM     11  C   UNL     1      -2.326   2.340   2.780  0.00  0.00    +0.000 A 
ATOM     12  C   UNL     1      -2.128   3.432   3.615  0.00  0.00    +0.000 A 
ATOM     13  C   UNL     1      -0.908   4.128   3.609  0.00  0.00    +0.000 A 
ATOM     14  C   UNL     1      -0.695   5.217   4.457  0.00  0.00    +0.000 A 
ATOM     15  C   UNL     1       0.548   5.865   4.492  0.00  0.00    +0.000 A 
ATOM     16  C   UNL     1       1.563   5.416   3.637  0.00  0.00    +0.000 A 
ATOM     17  C   UNL     1       1.354   4.362   2.763  0.00  0.00    +0.000 A 
ATOM     18  C   UNL     1       0.129   3.701   2.735  0.00  0.00    +0.000 A 
ATOM     19  C   UNL     1      -0.088   2.587   1.915  0.00  0.00    +0.000 A 
BRANCH  10  21
ATOM     20  C   UNL     1      -2.776   0.601   0.647  0.00  0.00    +0.000 C 
ATOM     21  O   UNL     1      -1.435   0.858   1.063  0.00  0.00    +0.000 OA
ENDBRANCH  10  21
ENDBRANCH   1  15
BRANCH   3  22
ATOM     22  C   UNL     1       0.284   8.407   8.602  0.00  0.00    +0.000 C 
ATOM     23  C   UNL     1      -1.233   8.541   8.731  0.00  0.00    +0.000 C 
ATOM     24  C   UNL     1       0.829   7.395   9.609  0.00  0.00    +0.000 C 
ENDBRANCH   3  22
BRANCH   8  25
ATOM     25  N   UNL     1       2.662   8.087   2.999  0.00  0.00    +0.000 N 
ATOM     26  H   UNL     1       3.236   8.553   2.349  0.00  0.00    +0.000 HD
ATOM     27  H   UNL     1       2.273   7.211   2.774  0.00  0.00    +0.000 HD
ENDBRANCH   8  25
TORSDOF 4
