REMARK  Name = 
REMARK  8 active torsions:
REMARK  status: ('A' for Active; 'I' for Inactive)
REMARK    1  A    between atoms: C_1  and  O_2
REMARK    2  A    between atoms: O_2  and  C_3
REMARK    3  A    between atoms: C_9  and  N_10
REMARK    4  A    between atoms: N_10  and  C_11
REMARK    5  A    between atoms: C_21  and  N_22
REMARK    6  A    between atoms: C_23  and  C_25
REMARK    7  A    between atoms: C_27  and  C_28
REMARK    8  A    between atoms: C_28  and  N_29
REMARK                            x       y       z     vdW  Elec       q    Type
REMARK                         _______ _______ _______ _____ _____    ______ ____
ROOT
ATOM      1  C   UNL     1       1.021  -0.388  -2.404  0.00  0.00    +0.000 A 
ATOM      2  C   UNL     1      -0.017  -0.250  -3.346  0.00  0.00    +0.000 A 
ATOM      3  C   UNL     1       0.220   0.088  -4.670  0.00  0.00    +0.000 A 
ATOM      4  N   UNL     1      -0.813   0.188  -5.511  0.00  0.00    +0.000 NA
ATOM      5  C   UNL     1      -0.526   0.511  -6.778  0.00  0.00    +0.000 A 
ATOM      6  N   UNL     1       0.689   0.771  -7.268  0.00  0.00    +0.000 NA
ATOM      7  C   UNL     1       1.723   0.685  -6.411  0.00  0.00    +0.000 A 
ATOM      8  C   UNL     1       1.542   0.298  -5.069  0.00  0.00    +0.000 A 
ATOM      9  C   UNL     1       2.585   0.154  -4.122  0.00  0.00    +0.000 A 
ATOM     10  C   UNL     1       2.347  -0.133  -2.781  0.00  0.00    +0.000 A 
ENDROOT
BRANCH  10  11
ATOM     11  N   UNL     1       3.391  -0.137  -1.814  0.00  0.00    +0.000 N 
ATOM     12  C   UNL     1       4.740   0.097  -2.049  0.00  0.00    +0.000 C 
ATOM     13  O   UNL     1       5.275   0.241  -3.145  0.00  0.00    +0.000 OA
ATOM     14  H   UNL     1       3.130  -0.324  -0.883  0.00  0.00    +0.000 HD
BRANCH  12  15
ATOM     15  C   UNL     1       5.563   0.228  -0.808  0.00  0.00    +0.000 C 
ATOM     16  F   UNL     1       4.874   0.241   0.353  0.00  0.00    +0.000 F 
ATOM     17  C   UNL     1       6.891   0.428  -0.832  0.00  0.00    +0.000 C 
BRANCH  17  18
ATOM     18  C   UNL     1       7.697   0.803   0.375  0.00  0.00    +0.000 C 
BRANCH  18  19
ATOM     19  N   UNL     1       8.846  -0.064   0.666  0.00  0.00    +0.000 N 
ATOM     20  C   UNL     1       8.478  -1.452   1.024  0.00  0.00    +0.000 C 
ATOM     21  C   UNL     1       7.838  -1.609   2.414  0.00  0.00    +0.000 C 
ATOM     22  O   UNL     1       8.661  -1.046   3.443  0.00  0.00    +0.000 OA
ATOM     23  C   UNL     1       8.944   0.331   3.172  0.00  0.00    +0.000 C 
ATOM     24  C   UNL     1       9.630   0.495   1.801  0.00  0.00    +0.000 C 
ATOM     25  H   UNL     1       9.388  -0.094  -0.198  0.00  0.00    +0.000 HD
ENDBRANCH  18  19
ENDBRANCH  17  18
ENDBRANCH  12  15
ENDBRANCH  10  11
BRANCH   1  27
ATOM     26  C   UNL     1      -0.287  -1.707  -0.974  0.00  0.00    +0.000 C 
ATOM     27  O   UNL     1       0.784  -0.764  -1.102  0.00  0.00    +0.000 OA
ENDBRANCH   1  27
BRANCH   7  28
ATOM     28  N   UNL     1       3.042   0.896  -6.902  0.00  0.00    +0.000 N 
ATOM     29  H   UNL     1       3.777   0.476  -6.401  0.00  0.00    +0.000 HD
BRANCH  28  30
ATOM     30  C   UNL     1       3.395   1.655  -8.043  0.00  0.00    +0.000 A 
ATOM     31  C   UNL     1       2.688   2.800  -8.437  0.00  0.00    +0.000 A 
ATOM     32  C   UNL     1       3.135   3.577  -9.504  0.00  0.00    +0.000 A 
ATOM     33  C   UNL     1       4.305   3.224 -10.168  0.00  0.00    +0.000 A 
ATOM     34  F   UNL     1       4.717   3.982 -11.195  0.00  0.00    +0.000 F 
ATOM     35  C   UNL     1       5.043   2.114  -9.760  0.00  0.00    +0.000 A 
ATOM     36 CL   UNL     1       6.507   1.688 -10.560  0.00  0.00    +0.000 Cl
ATOM     37  C   UNL     1       4.599   1.342  -8.687  0.00  0.00    +0.000 A 
ENDBRANCH  28  30
ENDBRANCH   7  28
TORSDOF 7
