
     RDKit          3D

 61 64  0  0  0  0  0  0  0  0999 V2000
    7.2343    3.2769   -3.6153 C   0  0  0  0  0  0  0  0  0  0  0  0
    5.9708    2.8571   -3.4416 C   0  0  0  0  0  0  0  0  0  0  0  0
    5.6457    1.6665   -2.6021 C   0  0  0  0  0  0  0  0  0  0  0  0
    6.5102    0.7452   -2.4722 O   0  0  0  0  0  0  0  0  0  0  0  0
    4.3472    1.5499   -1.9932 N   0  0  0  0  0  0  0  0  0  0  0  0
    4.0905    0.6974   -0.8542 C   0  0  0  0  0  0  0  0  0  0  0  0
    5.1018    0.5011    0.0994 C   0  0  0  0  0  0  0  0  0  0  0  0
    4.8992   -0.3117    1.2091 C   0  0  0  0  0  0  0  0  0  0  0  0
    3.6680   -0.9283    1.3975 C   0  0  0  0  0  0  0  0  0  0  0  0
    2.6350   -0.7282    0.4796 C   0  0  0  0  0  0  0  0  0  0  0  0
    2.8036    0.1123   -0.6460 C   0  0  0  0  0  0  0  0  0  0  0  0
    1.6629    0.3008   -1.6500 C   0  0  0  0  0  0  0  0  0  0  0  0
    1.9791   -0.4217   -2.9886 C   0  0  0  0  0  0  0  0  0  0  0  0
    1.8221   -1.9528   -2.8620 C   0  0  0  0  0  0  0  0  0  0  0  0
    0.4968   -2.2993   -2.3346 N   0  0  0  0  0  0  0  0  0  0  0  0
   -0.1158   -1.4196   -1.3958 C   0  0  0  0  0  0  0  0  0  0  0  0
   -1.3024   -1.5949   -0.7160 C   0  0  0  0  0  0  0  0  0  0  0  0
   -2.2084   -2.7665   -0.8235 C   0  0  0  0  0  0  0  0  0  0  0  0
   -3.6323   -2.6131   -0.8414 N   0  0  0  0  0  0  0  0  0  0  0  0
   -1.7239   -3.9175   -0.9874 O   0  0  0  0  0  0  0  0  0  0  0  0
   -1.4507   -0.3977   -0.0009 C   0  0  0  0  0  0  0  0  0  0  0  0
   -2.5083   -0.0768    0.9768 C   0  0  0  0  0  0  0  0  0  0  0  0
   -2.9458   -1.0468    1.8791 C   0  0  0  0  0  0  0  0  0  0  0  0
   -4.0025   -0.7784    2.7667 C   0  0  0  0  0  0  0  0  0  0  0  0
   -4.4535   -1.7422    3.6798 O   0  0  0  0  0  0  0  0  0  0  0  0
   -3.9556   -3.0787    3.7689 C   0  0  0  0  0  0  0  0  0  0  0  0
   -4.6336    0.4851    2.7250 C   0  0  0  0  0  0  0  0  0  0  0  0
   -5.7660    0.7896    3.6802 C   0  0  0  0  0  0  0  0  0  0  0  0
   -4.1550    1.4897    1.8512 C   0  0  0  0  0  0  0  0  0  0  0  0
   -4.8074    2.7367    1.8539 O   0  0  0  0  0  0  0  0  0  0  0  0
   -4.3845    3.8657    1.0979 C   0  0  0  0  0  0  0  0  0  0  0  0
   -3.0677    1.2073    1.0018 C   0  0  0  0  0  0  0  0  0  0  0  0
   -0.4170    0.4274   -0.2804 N   0  0  0  0  0  0  0  0  0  0  0  0
    0.3764   -0.2024   -1.1295 N   0  0  0  0  0  0  0  0  0  0  0  0
    8.0499    2.7935   -3.0962 H   0  0  0  0  0  0  0  0  0  0  0  0
    8.0646    2.7945   -3.0969 H   0  0  0  0  0  0  0  0  0  0  0  0
    5.1782    3.3906   -3.9709 H   0  0  0  0  0  0  0  0  0  0  0  0
    3.5855    2.1555   -2.3643 H   0  0  0  0  0  0  0  0  0  0  0  0
    6.0710    0.9855    0.0024 H   0  0  0  0  0  0  0  0  0  0  0  0
    5.6982   -0.4590    1.9264 H   0  0  0  0  0  0  0  0  0  0  0  0
    3.5203   -1.5715    2.2601 H   0  0  0  0  0  0  0  0  0  0  0  0
    1.6917   -1.2388    0.6779 H   0  0  0  0  0  0  0  0  0  0  0  0
    1.5414    1.3911   -1.8520 H   0  0  0  0  0  0  0  0  0  0  0  0
    3.0010   -0.1914   -3.3578 H   0  0  0  0  0  0  0  0  0  0  0  0
    1.2607   -0.0685   -3.7647 H   0  0  0  0  0  0  0  0  0  0  0  0
    1.9798   -2.4371   -3.8492 H   0  0  0  0  0  0  0  0  0  0  0  0
    2.5933   -2.3234   -2.1583 H   0  0  0  0  0  0  0  0  0  0  0  0
   -0.0550   -3.0568   -2.7881 H   0  0  0  0  0  0  0  0  0  0  0  0
   -4.1106   -1.6947   -0.6959 H   0  0  0  0  0  0  0  0  0  0  0  0
   -4.0867   -1.6826   -0.6953 H   0  0  0  0  0  0  0  0  0  0  0  0
   -2.4628   -2.0179    1.8686 H   0  0  0  0  0  0  0  0  0  0  0  0
   -4.4981   -3.6126    4.5728 H   0  0  0  0  0  0  0  0  0  0  0  0
   -2.8750   -3.0506    4.0180 H   0  0  0  0  0  0  0  0  0  0  0  0
   -4.1323   -3.6142    2.8134 H   0  0  0  0  0  0  0  0  0  0  0  0
   -6.3580   -0.1194    3.9235 H   0  0  0  0  0  0  0  0  0  0  0  0
   -5.3522    1.2125    4.6209 H   0  0  0  0  0  0  0  0  0  0  0  0
   -6.4679    1.5249    3.2348 H   0  0  0  0  0  0  0  0  0  0  0  0
   -3.4009    4.2324    1.4805 H   0  0  0  0  0  0  0  0  0  0  0  0
   -5.1441    4.6657    1.2132 H   0  0  0  0  0  0  0  0  0  0  0  0
   -4.3113    3.6023    0.0154 H   0  0  0  0  0  0  0  0  0  0  0  0
   -2.6941    1.9579    0.3208 H   0  0  0  0  0  0  0  0  0  0  0  0
  1  2  2  0
  2  3  1  0
  3  4  2  0
  3  5  1  0
  5  6  1  0
  6  7  2  0
  7  8  1  0
  8  9  2  0
  9 10  1  0
 10 11  2  0
 11 12  1  0
 12 13  1  0
 13 14  1  0
 14 15  1  0
 15 16  1  0
 16 17  2  0
 17 18  1  0
 18 19  1  0
 18 20  2  0
 17 21  1  0
 21 22  1  0
 22 23  2  0
 23 24  1  0
 24 25  1  0
 25 26  1  0
 24 27  2  0
 27 28  1  0
 27 29  1  0
 29 30  1  0
 30 31  1  0
 29 32  2  0
 21 33  2  0
 33 34  1  0
 11  6  1  0
 34 12  1  0
 34 16  1  0
 32 22  1  0
  1 35  1  0
  1 36  1  0
  2 37  1  0
  5 38  1  0
  7 39  1  0
  8 40  1  0
  9 41  1  0
 10 42  1  0
 12 43  1  0
 13 44  1  0
 13 45  1  0
 14 46  1  0
 14 47  1  0
 15 48  1  0
 19 49  1  0
 19 50  1  0
 23 51  1  0
 26 52  1  0
 26 53  1  0
 26 54  1  0
 28 55  1  0
 28 56  1  0
 28 57  1  0
 31 58  1  0
 31 59  1  0
 31 60  1  0
 32 61  1  0
M  END
