REMARK  Name = 
REMARK  10 active torsions:
REMARK  status: ('A' for Active; 'I' for Inactive)
REMARK    1  A    between atoms: C_2  and  C_3
REMARK    2  A    between atoms: N_5  and  C_6
REMARK    3  A    between atoms: C_10  and  N_11
REMARK    4  A    between atoms: N_15  and  C_16
REMARK    5  A    between atoms: C_19  and  C_20
REMARK    6  A    between atoms: C_21  and  C_22
REMARK    7  A    between atoms: C_24  and  O_25
REMARK    8  A    between atoms: O_25  and  C_26
REMARK    9  A    between atoms: C_28  and  O_29
REMARK   10  A    between atoms: O_29  and  C_30
REMARK                            x       y       z     vdW  Elec       q    Type
REMARK                         _______ _______ _______ _____ _____    ______ ____
ROOT
ATOM      1  N   UNL     1      -6.348   1.782  -8.282  0.00  0.00    +0.000 N 
ATOM      2  C   UNL     1      -5.827   0.464  -8.159  0.00  0.00    +0.000 A 
ATOM      3  N   UNL     1      -6.078  -0.220  -7.018  0.00  0.00    +0.000 NA
ATOM      4  C   UNL     1      -5.687  -1.493  -6.933  0.00  0.00    +0.000 A 
ATOM      5  N   UNL     1      -5.951  -2.164  -5.744  0.00  0.00    +0.000 N 
ATOM      6  N   UNL     1      -5.025  -2.122  -7.917  0.00  0.00    +0.000 NA
ATOM      7  C   UNL     1      -4.767  -1.423  -9.035  0.00  0.00    +0.000 A 
ATOM      8  C   UNL     1      -5.160  -0.123  -9.225  0.00  0.00    +0.000 A 
ATOM      9 CL   UNL     1      -4.769   0.708 -10.674  0.00  0.00    +0.000 Cl
ATOM     10  H   UNL     1      -6.477   2.150  -9.186  0.00  0.00    +0.000 HD
ATOM     11  H   UNL     1      -5.948  -1.620  -4.924  0.00  0.00    +0.000 HD
ENDROOT
BRANCH   1  16
ATOM     12  C   UNL     1      -6.329   3.314  -4.869  0.00  0.00    +0.000 A 
ATOM     13  C   UNL     1      -7.352   4.250  -5.013  0.00  0.00    +0.000 A 
ATOM     14  C   UNL     1      -8.051   4.347  -6.221  0.00  0.00    +0.000 A 
ATOM     15  C   UNL     1      -7.727   3.522  -7.293  0.00  0.00    +0.000 A 
ATOM     16  C   UNL     1      -6.692   2.590  -7.174  0.00  0.00    +0.000 A 
ATOM     17  C   UNL     1      -5.963   2.543  -5.970  0.00  0.00    +0.000 A 
BRANCH  12  20
ATOM     18  C   UNL     1      -6.079   3.450  -2.397  0.00  0.00    +0.000 C 
ATOM     19  O   UNL     1      -7.112   4.046  -2.125  0.00  0.00    +0.000 OA
ATOM     20  N   UNL     1      -5.645   3.073  -3.653  0.00  0.00    +0.000 N 
ATOM     21  H   UNL     1      -4.786   2.595  -3.708  0.00  0.00    +0.000 HD
BRANCH  18  23
ATOM     22  C   UNL     1      -5.471   3.182  -0.027  0.00  0.00    +0.000 C 
ATOM     23  C   UNL     1      -5.151   3.000  -1.316  0.00  0.00    +0.000 C 
ENDBRANCH  18  23
ENDBRANCH  12  20
ENDBRANCH   1  16
BRANCH   5  24
ATOM     24  C   UNL     1      -6.220  -3.529  -5.589  0.00  0.00    +0.000 A 
ATOM     25  C   UNL     1      -5.917  -4.160  -4.381  0.00  0.00    +0.000 A 
ATOM     26  C   UNL     1      -6.039  -5.548  -4.257  0.00  0.00    +0.000 A 
ATOM     27  C   UNL     1      -6.495  -6.329  -5.327  0.00  0.00    +0.000 A 
ATOM     28  C   UNL     1      -6.828  -5.695  -6.525  0.00  0.00    +0.000 A 
ATOM     29  C   UNL     1      -6.693  -4.313  -6.649  0.00  0.00    +0.000 A 
BRANCH  27  30
ATOM     30  C   UNL     1      -6.525  -7.788  -5.176  0.00  0.00    +0.000 C 
ATOM     31  C   UNL     1      -7.382  -8.600  -5.814  0.00  0.00    +0.000 C 
BRANCH  31  32
ATOM     32  C   UNL     1      -7.400 -10.060  -5.648  0.00  0.00    +0.000 A 
ATOM     33  C   UNL     1      -8.618 -10.740  -5.785  0.00  0.00    +0.000 A 
ATOM     34  C   UNL     1      -8.670 -12.130  -5.675  0.00  0.00    +0.000 A 
ATOM     35  C   UNL     1      -7.496 -12.849  -5.431  0.00  0.00    +0.000 A 
ATOM     36  C   UNL     1      -6.272 -12.191  -5.318  0.00  0.00    +0.000 A 
ATOM     37  C   UNL     1      -6.233 -10.800  -5.423  0.00  0.00    +0.000 A 
BRANCH  34  38
ATOM     38  O   UNL     1      -9.794 -12.903  -5.796  0.00  0.00    +0.000 OA
ATOM     39  C   UNL     1     -11.013 -12.224  -6.070  0.00  0.00    +0.000 C 
ENDBRANCH  34  38
BRANCH  36  40
ATOM     40  O   UNL     1      -5.053 -12.781  -5.128  0.00  0.00    +0.000 OA
ATOM     41  C   UNL     1      -5.029 -14.201  -5.073  0.00  0.00    +0.000 C 
ENDBRANCH  36  40
ENDBRANCH  31  32
ENDBRANCH  27  30
ENDBRANCH   5  24
TORSDOF 8
