REMARK  Name = 
REMARK  8 active torsions:
REMARK  status: ('A' for Active; 'I' for Inactive)
REMARK    1  A    between atoms: C_1  and  C_2
REMARK    2  A    between atoms: C_2  and  C_3
REMARK    3  A    between atoms: C_2  and  C_4
REMARK    4  A    between atoms: C_2  and  O_5
REMARK    5  A    between atoms: O_5  and  C_6
REMARK    6  A    between atoms: N_8  and  C_9
REMARK    7  A    between atoms: C_12  and  C_13
REMARK    8  A    between atoms: N_21  and  C_22
REMARK                            x       y       z     vdW  Elec       q    Type
REMARK                         _______ _______ _______ _____ _____    ______ ____
ROOT
ATOM      1  C   UNL     1       4.417  -4.946   4.261  0.00  0.00    +0.000 A 
ATOM      2  N   UNL     1       4.782  -5.439   5.502  0.00  0.00    +0.000 N 
ATOM      3  N   UNL     1       5.696  -6.412   5.496  0.00  0.00    +0.000 NA
ATOM      4  C   UNL     1       6.019  -6.522   4.210  0.00  0.00    +0.000 A 
ATOM      5  N   UNL     1       6.946  -7.369   3.715  0.00  0.00    +0.000 NA
ATOM      6  C   UNL     1       7.073  -7.220   2.382  0.00  0.00    +0.000 A 
ATOM      7  N   UNL     1       6.431  -6.366   1.535  0.00  0.00    +0.000 NA
ATOM      8  C   UNL     1       5.462  -5.515   1.997  0.00  0.00    +0.000 A 
ATOM      9  N   UNL     1       4.768  -4.704   1.094  0.00  0.00    +0.000 N 
ATOM     10  C   UNL     1       5.266  -5.619   3.391  0.00  0.00    +0.000 A 
ATOM     11  H   UNL     1       4.392  -5.093   6.337  0.00  0.00    +0.000 HD
ATOM     12  H   UNL     1       3.860  -4.435   1.367  0.00  0.00    +0.000 HD
ENDROOT
BRANCH   9  13
ATOM     13  C   UNL     1       5.203  -4.223  -0.157  0.00  0.00    +0.000 A 
ATOM     14  C   UNL     1       6.559  -3.980  -0.432  0.00  0.00    +0.000 A 
ATOM     15  C   UNL     1       6.971  -3.457  -1.663  0.00  0.00    +0.000 A 
ATOM     16  C   UNL     1       6.029  -3.177  -2.649  0.00  0.00    +0.000 A 
ATOM     17  C   UNL     1       4.683  -3.423  -2.393  0.00  0.00    +0.000 A 
ATOM     18 CL   UNL     1       3.513  -3.085  -3.611  0.00  0.00    +0.000 Cl
ATOM     19  C   UNL     1       4.269  -3.936  -1.159  0.00  0.00    +0.000 A 
ENDBRANCH   9  13
BRANCH   1  23
ATOM     20  C   UNL     1       1.522  -1.757   4.246  0.00  0.00    +0.000 A 
ATOM     21  C   UNL     1       2.550  -1.794   3.301  0.00  0.00    +0.000 A 
ATOM     22  C   UNL     1       3.489  -2.834   3.289  0.00  0.00    +0.000 A 
ATOM     23  C   UNL     1       3.394  -3.895   4.185  0.00  0.00    +0.000 A 
ATOM     24  C   UNL     1       2.319  -3.885   5.094  0.00  0.00    +0.000 A 
ATOM     25  C   UNL     1       1.400  -2.826   5.132  0.00  0.00    +0.000 A 
BRANCH  20  28
ATOM     26  C   UNL     1       0.662   0.505   3.696  0.00  0.00    +0.000 C 
ATOM     27  O   UNL     1       1.400   0.781   2.763  0.00  0.00    +0.000 OA
ATOM     28  N   UNL     1       0.633  -0.675   4.389  0.00  0.00    +0.000 N 
ATOM     29  H   UNL     1      -0.084  -0.777   5.056  0.00  0.00    +0.000 HD
BRANCH  26  30
ATOM     30  O   UNL     1      -0.261   1.358   4.214  0.00  0.00    +0.000 OA
BRANCH  30  32
ATOM     31  C   UNL     1      -0.820   2.628   2.181  0.00  0.00    +0.000 C 
ATOM     32  C   UNL     1      -0.383   2.690   3.652  0.00  0.00    +0.000 C 
ATOM     33  C   UNL     1       0.912   3.501   3.835  0.00  0.00    +0.000 C 
ATOM     34  C   UNL     1      -1.493   3.386   4.452  0.00  0.00    +0.000 C 
ENDBRANCH  30  32
ENDBRANCH  26  30
ENDBRANCH  20  28
ENDBRANCH   1  23
TORSDOF 5
