MODEL 1
REMARK VINA RESULT:    -8.987      0.000      0.000
REMARK INTER + INTRA:         -14.996
REMARK INTER:                 -13.191
REMARK INTRA:                  -1.805
REMARK UNBOUND:                -1.805
REMARK  Name = 
REMARK  11 active torsions:
REMARK  status: ('A' for Active; 'I' for Inactive)
REMARK    1  A    between atoms: C_1  and  C_2
REMARK    2  A    between atoms: C_8  and  C_9
REMARK    3  A    between atoms: C_12  and  O_13
REMARK    4  A    between atoms: O_13  and  C_14
REMARK    5  A    between atoms: N_23  and  C_24
REMARK    6  A    between atoms: C_24  and  C_25
REMARK    7  A    between atoms: C_30  and  N_32
REMARK    8  A    between atoms: C_33  and  C_34
REMARK    9  A    between atoms: C_34  and  N_35
REMARK   10  A    between atoms: N_35  and  C_36
REMARK   11  A    between atoms: N_35  and  C_37
REMARK                            x       y       z     vdW  Elec       q    Type
REMARK                         _______ _______ _______ _____ _____    ______ ____
ROOT
ATOM      1  C   UNL     1      25.502   5.734  49.518  0.00  0.00    +0.000 C 
ATOM      2  C   UNL     1      24.168   5.258  49.030  0.00  0.00    +0.000 A 
ATOM      3  N   UNL     1      23.670   5.937  47.955  0.00  0.00    +0.000 NA
ATOM      4  C   UNL     1      22.484   5.572  47.439  0.00  0.00    +0.000 A 
ATOM      5  N   UNL     1      21.694   4.577  47.851  0.00  0.00    +0.000 NA
ATOM      6  C   UNL     1      22.203   3.935  48.915  0.00  0.00    +0.000 A 
ATOM      7  C   UNL     1      23.411   4.189  49.547  0.00  0.00    +0.000 A 
ATOM      8  C   UNL     1      23.479   3.198  50.582  0.00  0.00    +0.000 A 
ATOM      9  N   UNL     1      22.354   2.458  50.628  0.00  0.00    +0.000 NA
ATOM     10  N   UNL     1      21.616   2.905  49.597  0.00  0.00    +0.000 N 
ENDROOT
BRANCH   8  11
ATOM     11  C   UNL     1      24.566   2.903  51.517  0.00  0.00    +0.000 A 
ATOM     12  C   UNL     1      24.348   2.971  52.901  0.00  0.00    +0.000 A 
ATOM     13  C   UNL     1      25.365   2.632  53.797  0.00  0.00    +0.000 A 
ATOM     14  C   UNL     1      26.595   2.178  53.312  0.00  0.00    +0.000 A 
ATOM     15  C   UNL     1      26.839   2.158  51.943  0.00  0.00    +0.000 A 
ATOM     16  C   UNL     1      25.818   2.488  51.051  0.00  0.00    +0.000 A 
BRANCH  14  17
ATOM     17  O   UNL     1      27.627   1.757  54.114  0.00  0.00    +0.000 OA
BRANCH  17  18
ATOM     18  C   UNL     1      28.249   0.559  53.841  0.00  0.00    +0.000 A 
ATOM     19  C   UNL     1      29.631   0.342  53.866  0.00  0.00    +0.000 A 
ATOM     20  C   UNL     1      30.151  -0.898  53.495  0.00  0.00    +0.000 A 
ATOM     21  C   UNL     1      29.291  -1.942  53.158  0.00  0.00    +0.000 A 
ATOM     22  C   UNL     1      27.910  -1.753  53.212  0.00  0.00    +0.000 A 
ATOM     23  C   UNL     1      27.391  -0.504  53.555  0.00  0.00    +0.000 A 
ENDBRANCH  17  18
ENDBRANCH  14  17
ENDBRANCH   8  11
BRANCH  10  24
ATOM     24  C   UNL     1      20.369   2.244  49.253  0.00  0.00    +0.000 C 
BRANCH  24  25
ATOM     25  C   UNL     1      19.232   2.444  50.275  0.00  0.00    +0.000 C 
ATOM     26  C   UNL     1      18.033   3.246  49.747  0.00  0.00    +0.000 C 
ATOM     27  C   UNL     1      17.249   2.211  48.945  0.00  0.00    +0.000 C 
ATOM     28  C   UNL     1      17.399   0.944  49.777  0.00  0.00    +0.000 C 
ATOM     29  N   UNL     1      18.586   1.159  50.587  0.00  0.00    +0.000 N 
ATOM     30  C   UNL     1      18.900   0.296  51.613  0.00  0.00    +0.000 C 
ATOM     31  O   UNL     1      18.217  -0.701  51.833  0.00  0.00    +0.000 OA
BRANCH  30  32
ATOM     32  N   UNL     1      20.003   0.657  52.341  0.00  0.00    +0.000 NA
ATOM     33  C   UNL     1      20.300  -0.125  53.330  0.00  0.00    +0.000 C 
BRANCH  33  34
ATOM     34  C   UNL     1      21.522   0.136  54.184  0.00  0.00    +0.000 C 
BRANCH  34  35
ATOM     35  N   UNL     1      22.474  -0.984  54.051  0.00  0.00    +0.000 N 
ATOM     36  C   UNL     1      23.681  -0.577  53.322  0.00  0.00    +0.000 C 
ATOM     37  C   UNL     1      22.847  -1.474  55.380  0.00  0.00    +0.000 C 
ATOM     38  H   UNL     1      22.018  -1.727  53.521  0.00  0.00    +0.000 HD
ENDBRANCH  34  35
ENDBRANCH  33  34
ENDBRANCH  30  32
ENDBRANCH  24  25
ENDBRANCH  10  24
TORSDOF 8
ENDMDL
MODEL 2
REMARK VINA RESULT:    -8.859      2.630      5.170
REMARK INTER + INTRA:         -14.807
REMARK INTER:                 -12.530
REMARK INTRA:                  -2.277
REMARK UNBOUND:                -1.805
REMARK  Name = 
REMARK  11 active torsions:
REMARK  status: ('A' for Active; 'I' for Inactive)
REMARK    1  A    between atoms: C_1  and  C_2
REMARK    2  A    between atoms: C_8  and  C_9
REMARK    3  A    between atoms: C_12  and  O_13
REMARK    4  A    between atoms: O_13  and  C_14
REMARK    5  A    between atoms: N_23  and  C_24
REMARK    6  A    between atoms: C_24  and  C_25
REMARK    7  A    between atoms: C_30  and  N_32
REMARK    8  A    between atoms: C_33  and  C_34
REMARK    9  A    between atoms: C_34  and  N_35
REMARK   10  A    between atoms: N_35  and  C_36
REMARK   11  A    between atoms: N_35  and  C_37
REMARK                            x       y       z     vdW  Elec       q    Type
REMARK                         _______ _______ _______ _____ _____    ______ ____
ROOT
ATOM      1  C   UNL     1      21.864   1.045  49.224  0.00  0.00    +0.000 C 
ATOM      2  C   UNL     1      21.940   2.386  48.563  0.00  0.00    +0.000 A 
ATOM      3  N   UNL     1      20.946   2.646  47.663  0.00  0.00    +0.000 NA
ATOM      4  C   UNL     1      20.925   3.831  47.030  0.00  0.00    +0.000 A 
ATOM      5  N   UNL     1      21.783   4.843  47.179  0.00  0.00    +0.000 NA
ATOM      6  C   UNL     1      22.756   4.557  48.059  0.00  0.00    +0.000 A 
ATOM      7  C   UNL     1      22.902   3.389  48.793  0.00  0.00    +0.000 A 
ATOM      8  C   UNL     1      24.067   3.625  49.597  0.00  0.00    +0.000 A 
ATOM      9  N   UNL     1      24.633   4.813  49.304  0.00  0.00    +0.000 NA
ATOM     10  N   UNL     1      23.808   5.363  48.395  0.00  0.00    +0.000 N 
ENDROOT
BRANCH   8  11
ATOM     11  C   UNL     1      24.659   2.792  50.644  0.00  0.00    +0.000 A 
ATOM     12  C   UNL     1      26.044   2.570  50.674  0.00  0.00    +0.000 A 
ATOM     13  C   UNL     1      26.621   1.826  51.706  0.00  0.00    +0.000 A 
ATOM     14  C   UNL     1      25.820   1.335  52.741  0.00  0.00    +0.000 A 
ATOM     15  C   UNL     1      24.439   1.504  52.692  0.00  0.00    +0.000 A 
ATOM     16  C   UNL     1      23.868   2.256  51.666  0.00  0.00    +0.000 A 
BRANCH  14  17
ATOM     17  O   UNL     1      26.305   0.654  53.830  0.00  0.00    +0.000 OA
BRANCH  17  18
ATOM     18  C   UNL     1      27.337  -0.243  53.661  0.00  0.00    +0.000 A 
ATOM     19  C   UNL     1      28.653  -0.048  54.091  0.00  0.00    +0.000 A 
ATOM     20  C   UNL     1      29.633  -0.997  53.794  0.00  0.00    +0.000 A 
ATOM     21  C   UNL     1      29.288  -2.168  53.122  0.00  0.00    +0.000 A 
ATOM     22  C   UNL     1      27.960  -2.401  52.764  0.00  0.00    +0.000 A 
ATOM     23  C   UNL     1      26.986  -1.440  53.035  0.00  0.00    +0.000 A 
ENDBRANCH  17  18
ENDBRANCH  14  17
ENDBRANCH   8  11
BRANCH  10  24
ATOM     24  C   UNL     1      24.034   6.722  47.934  0.00  0.00    +0.000 C 
BRANCH  24  25
ATOM     25  C   UNL     1      24.010   7.790  49.045  0.00  0.00    +0.000 C 
ATOM     26  C   UNL     1      24.839   9.046  48.741  0.00  0.00    +0.000 C 
ATOM     27  C   UNL     1      23.926   9.853  47.824  0.00  0.00    +0.000 C 
ATOM     28  C   UNL     1      22.543   9.608  48.413  0.00  0.00    +0.000 C 
ATOM     29  N   UNL     1      22.665   8.375  49.171  0.00  0.00    +0.000 N 
ATOM     30  C   UNL     1      21.653   7.964  50.010  0.00  0.00    +0.000 C 
ATOM     31  O   UNL     1      20.606   8.600  50.096  0.00  0.00    +0.000 OA
BRANCH  30  32
ATOM     32  N   UNL     1      21.930   6.824  50.717  0.00  0.00    +0.000 NA
ATOM     33  C   UNL     1      20.954   5.978  50.816  0.00  0.00    +0.000 C 
BRANCH  33  34
ATOM     34  C   UNL     1      21.143   4.658  51.532  0.00  0.00    +0.000 C 
BRANCH  34  35
ATOM     35  N   UNL     1      19.840   3.985  51.694  0.00  0.00    +0.000 N 
ATOM     36  C   UNL     1      19.066   4.008  50.446  0.00  0.00    +0.000 C 
ATOM     37  C   UNL     1      20.051   2.597  52.112  0.00  0.00    +0.000 C 
ATOM     38  H   UNL     1      19.310   4.487  52.406  0.00  0.00    +0.000 HD
ENDBRANCH  34  35
ENDBRANCH  33  34
ENDBRANCH  30  32
ENDBRANCH  24  25
ENDBRANCH  10  24
TORSDOF 8
ENDMDL
MODEL 3
REMARK VINA RESULT:    -8.858      0.740      1.107
REMARK INTER + INTRA:         -14.806
REMARK INTER:                 -13.119
REMARK INTRA:                  -1.687
REMARK UNBOUND:                -1.805
REMARK  Name = 
REMARK  11 active torsions:
REMARK  status: ('A' for Active; 'I' for Inactive)
REMARK    1  A    between atoms: C_1  and  C_2
REMARK    2  A    between atoms: C_8  and  C_9
REMARK    3  A    between atoms: C_12  and  O_13
REMARK    4  A    between atoms: O_13  and  C_14
REMARK    5  A    between atoms: N_23  and  C_24
REMARK    6  A    between atoms: C_24  and  C_25
REMARK    7  A    between atoms: C_30  and  N_32
REMARK    8  A    between atoms: C_33  and  C_34
REMARK    9  A    between atoms: C_34  and  N_35
REMARK   10  A    between atoms: N_35  and  C_36
REMARK   11  A    between atoms: N_35  and  C_37
REMARK                            x       y       z     vdW  Elec       q    Type
REMARK                         _______ _______ _______ _____ _____    ______ ____
ROOT
ATOM      1  C   UNL     1      25.910   5.753  49.427  0.00  0.00    +0.000 C 
ATOM      2  C   UNL     1      24.499   5.595  48.952  0.00  0.00    +0.000 A 
ATOM      3  N   UNL     1      24.140   6.419  47.923  0.00  0.00    +0.000 NA
ATOM      4  C   UNL     1      22.896   6.339  47.420  0.00  0.00    +0.000 A 
ATOM      5  N   UNL     1      21.919   5.514  47.805  0.00  0.00    +0.000 NA
ATOM      6  C   UNL     1      22.296   4.725  48.825  0.00  0.00    +0.000 A 
ATOM      7  C   UNL     1      23.540   4.686  49.436  0.00  0.00    +0.000 A 
ATOM      8  C   UNL     1      23.412   3.651  50.422  0.00  0.00    +0.000 A 
ATOM      9  N   UNL     1      22.156   3.163  50.461  0.00  0.00    +0.000 NA
ATOM     10  N   UNL     1      21.514   3.809  49.472  0.00  0.00    +0.000 N 
ENDROOT
BRANCH   8  11
ATOM     11  C   UNL     1      24.425   3.085  51.313  0.00  0.00    +0.000 A 
ATOM     12  C   UNL     1      25.672   2.689  50.807  0.00  0.00    +0.000 A 
ATOM     13  C   UNL     1      26.664   2.204  51.663  0.00  0.00    +0.000 A 
ATOM     14  C   UNL     1      26.430   2.154  53.040  0.00  0.00    +0.000 A 
ATOM     15  C   UNL     1      25.179   2.493  53.546  0.00  0.00    +0.000 A 
ATOM     16  C   UNL     1      24.194   2.986  52.690  0.00  0.00    +0.000 A 
BRANCH  14  17
ATOM     17  O   UNL     1      27.366   1.759  53.964  0.00  0.00    +0.000 OA
BRANCH  17  18
ATOM     18  C   UNL     1      28.058   0.585  53.764  0.00  0.00    +0.000 A 
ATOM     19  C   UNL     1      29.439   0.426  53.916  0.00  0.00    +0.000 A 
ATOM     20  C   UNL     1      30.041  -0.795  53.610  0.00  0.00    +0.000 A 
ATOM     21  C   UNL     1      29.258  -1.876  53.210  0.00  0.00    +0.000 A 
ATOM     22  C   UNL     1      27.872  -1.744  53.135  0.00  0.00    +0.000 A 
ATOM     23  C   UNL     1      27.273  -0.515  53.413  0.00  0.00    +0.000 A 
ENDBRANCH  17  18
ENDBRANCH  14  17
ENDBRANCH   8  11
BRANCH  10  24
ATOM     24  C   UNL     1      20.150   3.445  49.130  0.00  0.00    +0.000 C 
BRANCH  24  25
ATOM     25  C   UNL     1      19.206   3.279  50.337  0.00  0.00    +0.000 C 
ATOM     26  C   UNL     1      18.022   4.257  50.361  0.00  0.00    +0.000 C 
ATOM     27  C   UNL     1      17.031   3.627  49.388  0.00  0.00    +0.000 C 
ATOM     28  C   UNL     1      17.185   2.135  49.656  0.00  0.00    +0.000 C 
ATOM     29  N   UNL     1      18.496   1.992  50.265  0.00  0.00    +0.000 N 
ATOM     30  C   UNL     1      18.879   0.796  50.829  0.00  0.00    +0.000 C 
ATOM     31  O   UNL     1      18.147  -0.189  50.784  0.00  0.00    +0.000 OA
BRANCH  30  32
ATOM     32  N   UNL     1      20.109   0.821  51.431  0.00  0.00    +0.000 NA
ATOM     33  C   UNL     1      20.110   0.618  52.710  0.00  0.00    +0.000 C 
BRANCH  33  34
ATOM     34  C   UNL     1      21.407   0.574  53.488  0.00  0.00    +0.000 C 
BRANCH  34  35
ATOM     35  N   UNL     1      21.998  -0.775  53.401  0.00  0.00    +0.000 N 
ATOM     36  C   UNL     1      23.465  -0.720  53.412  0.00  0.00    +0.000 C 
ATOM     37  C   UNL     1      21.531  -1.591  54.525  0.00  0.00    +0.000 C 
ATOM     38  H   UNL     1      21.702  -1.195  52.520  0.00  0.00    +0.000 HD
ENDBRANCH  34  35
ENDBRANCH  33  34
ENDBRANCH  30  32
ENDBRANCH  24  25
ENDBRANCH  10  24
TORSDOF 8
ENDMDL
MODEL 4
REMARK VINA RESULT:    -8.723      3.218      5.843
REMARK INTER + INTRA:         -14.608
REMARK INTER:                 -13.671
REMARK INTRA:                  -0.937
REMARK UNBOUND:                -1.805
REMARK  Name = 
REMARK  11 active torsions:
REMARK  status: ('A' for Active; 'I' for Inactive)
REMARK    1  A    between atoms: C_1  and  C_2
REMARK    2  A    between atoms: C_8  and  C_9
REMARK    3  A    between atoms: C_12  and  O_13
REMARK    4  A    between atoms: O_13  and  C_14
REMARK    5  A    between atoms: N_23  and  C_24
REMARK    6  A    between atoms: C_24  and  C_25
REMARK    7  A    between atoms: C_30  and  N_32
REMARK    8  A    between atoms: C_33  and  C_34
REMARK    9  A    between atoms: C_34  and  N_35
REMARK   10  A    between atoms: N_35  and  C_36
REMARK   11  A    between atoms: N_35  and  C_37
REMARK                            x       y       z     vdW  Elec       q    Type
REMARK                         _______ _______ _______ _____ _____    ______ ____
ROOT
ATOM      1  C   UNL     1      27.113   1.977  52.758  0.00  0.00    +0.000 C 
ATOM      2  C   UNL     1      25.758   1.339  52.771  0.00  0.00    +0.000 A 
ATOM      3  N   UNL     1      25.572   0.397  53.743  0.00  0.00    +0.000 NA
ATOM      4  C   UNL     1      24.382  -0.220  53.841  0.00  0.00    +0.000 A 
ATOM      5  N   UNL     1      23.300  -0.016  53.084  0.00  0.00    +0.000 NA
ATOM      6  C   UNL     1      23.515   0.906  52.131  0.00  0.00    +0.000 A 
ATOM      7  C   UNL     1      24.679   1.629  51.915  0.00  0.00    +0.000 A 
ATOM      8  C   UNL     1      24.355   2.490  50.814  0.00  0.00    +0.000 A 
ATOM      9  N   UNL     1      23.116   2.241  50.344  0.00  0.00    +0.000 NA
ATOM     10  N   UNL     1      22.625   1.302  51.172  0.00  0.00    +0.000 N 
ENDROOT
BRANCH   8  11
ATOM     11  C   UNL     1      25.151   3.552  50.198  0.00  0.00    +0.000 A 
ATOM     12  C   UNL     1      26.401   3.262  49.631  0.00  0.00    +0.000 A 
ATOM     13  C   UNL     1      27.138   4.261  48.990  0.00  0.00    +0.000 A 
ATOM     14  C   UNL     1      26.607   5.549  48.871  0.00  0.00    +0.000 A 
ATOM     15  C   UNL     1      25.394   5.860  49.477  0.00  0.00    +0.000 A 
ATOM     16  C   UNL     1      24.657   4.858  50.108  0.00  0.00    +0.000 A 
BRANCH  14  17
ATOM     17  O   UNL     1      27.226   6.575  48.200  0.00  0.00    +0.000 OA
BRANCH  17  18
ATOM     18  C   UNL     1      28.578   6.773  48.367  0.00  0.00    +0.000 A 
ATOM     19  C   UNL     1      29.562   5.790  48.220  0.00  0.00    +0.000 A 
ATOM     20  C   UNL     1      30.897   6.090  48.491  0.00  0.00    +0.000 A 
ATOM     21  C   UNL     1      31.260   7.387  48.850  0.00  0.00    +0.000 A 
ATOM     22  C   UNL     1      30.293   8.389  48.917  0.00  0.00    +0.000 A 
ATOM     23  C   UNL     1      28.953   8.082  48.675  0.00  0.00    +0.000 A 
ENDBRANCH  17  18
ENDBRANCH  14  17
ENDBRANCH   8  11
BRANCH  10  24
ATOM     24  C   UNL     1      21.244   0.872  51.047  0.00  0.00    +0.000 C 
BRANCH  24  25
ATOM     25  C   UNL     1      20.295   1.437  52.123  0.00  0.00    +0.000 C 
ATOM     26  C   UNL     1      20.556   2.903  52.497  0.00  0.00    +0.000 C 
ATOM     27  C   UNL     1      19.880   3.676  51.369  0.00  0.00    +0.000 C 
ATOM     28  C   UNL     1      18.628   2.856  51.091  0.00  0.00    +0.000 C 
ATOM     29  N   UNL     1      18.921   1.528  51.603  0.00  0.00    +0.000 N 
ATOM     30  C   UNL     1      17.927   0.581  51.707  0.00  0.00    +0.000 C 
ATOM     31  O   UNL     1      16.785   0.818  51.320  0.00  0.00    +0.000 OA
BRANCH  30  32
ATOM     32  N   UNL     1      18.325  -0.600  52.272  0.00  0.00    +0.000 NA
ATOM     33  C   UNL     1      17.401  -1.263  52.893  0.00  0.00    +0.000 C 
BRANCH  33  34
ATOM     34  C   UNL     1      17.699  -2.607  53.521  0.00  0.00    +0.000 C 
BRANCH  34  35
ATOM     35  N   UNL     1      16.461  -3.405  53.609  0.00  0.00    +0.000 N 
ATOM     36  C   UNL     1      15.551  -3.105  52.497  0.00  0.00    +0.000 C 
ATOM     37  C   UNL     1      16.793  -4.832  53.599  0.00  0.00    +0.000 C 
ATOM     38  H   UNL     1      15.989  -3.163  54.480  0.00  0.00    +0.000 HD
ENDBRANCH  34  35
ENDBRANCH  33  34
ENDBRANCH  30  32
ENDBRANCH  24  25
ENDBRANCH  10  24
TORSDOF 8
ENDMDL
MODEL 5
REMARK VINA RESULT:    -8.702      2.552      5.305
REMARK INTER + INTRA:         -14.578
REMARK INTER:                 -12.828
REMARK INTRA:                  -1.749
REMARK UNBOUND:                -1.805
REMARK  Name = 
REMARK  11 active torsions:
REMARK  status: ('A' for Active; 'I' for Inactive)
REMARK    1  A    between atoms: C_1  and  C_2
REMARK    2  A    between atoms: C_8  and  C_9
REMARK    3  A    between atoms: C_12  and  O_13
REMARK    4  A    between atoms: O_13  and  C_14
REMARK    5  A    between atoms: N_23  and  C_24
REMARK    6  A    between atoms: C_24  and  C_25
REMARK    7  A    between atoms: C_30  and  N_32
REMARK    8  A    between atoms: C_33  and  C_34
REMARK    9  A    between atoms: C_34  and  N_35
REMARK   10  A    between atoms: N_35  and  C_36
REMARK   11  A    between atoms: N_35  and  C_37
REMARK                            x       y       z     vdW  Elec       q    Type
REMARK                         _______ _______ _______ _____ _____    ______ ____
ROOT
ATOM      1  C   UNL     1      21.849   0.582  52.561  0.00  0.00    +0.000 C 
ATOM      2  C   UNL     1      21.247   1.897  52.171  0.00  0.00    +0.000 A 
ATOM      3  N   UNL     1      19.882   1.916  52.121  0.00  0.00    +0.000 NA
ATOM      4  C   UNL     1      19.252   3.058  51.793  0.00  0.00    +0.000 A 
ATOM      5  N   UNL     1      19.811   4.236  51.507  0.00  0.00    +0.000 NA
ATOM      6  C   UNL     1      21.152   4.186  51.553  0.00  0.00    +0.000 A 
ATOM      7  C   UNL     1      21.937   3.090  51.883  0.00  0.00    +0.000 A 
ATOM      8  C   UNL     1      23.280   3.591  51.816  0.00  0.00    +0.000 A 
ATOM      9  N   UNL     1      23.307   4.870  51.391  0.00  0.00    +0.000 NA
ATOM     10  N   UNL     1      22.012   5.209  51.265  0.00  0.00    +0.000 N 
ENDROOT
BRANCH   8  11
ATOM     11  C   UNL     1      24.538   2.926  52.157  0.00  0.00    +0.000 A 
ATOM     12  C   UNL     1      25.468   2.613  51.154  0.00  0.00    +0.000 A 
ATOM     13  C   UNL     1      26.696   2.033  51.482  0.00  0.00    +0.000 A 
ATOM     14  C   UNL     1      27.021   1.803  52.821  0.00  0.00    +0.000 A 
ATOM     15  C   UNL     1      26.085   2.060  53.818  0.00  0.00    +0.000 A 
ATOM     16  C   UNL     1      24.864   2.648  53.489  0.00  0.00    +0.000 A 
BRANCH  14  17
ATOM     17  O   UNL     1      28.228   1.302  53.243  0.00  0.00    +0.000 OA
BRANCH  17  18
ATOM     18  C   UNL     1      28.438  -0.059  53.225  0.00  0.00    +0.000 A 
ATOM     19  C   UNL     1      29.637  -0.695  53.562  0.00  0.00    +0.000 A 
ATOM     20  C   UNL     1      29.755  -2.079  53.430  0.00  0.00    +0.000 A 
ATOM     21  C   UNL     1      28.659  -2.836  53.021  0.00  0.00    +0.000 A 
ATOM     22  C   UNL     1      27.439  -2.213  52.763  0.00  0.00    +0.000 A 
ATOM     23  C   UNL     1      27.329  -0.826  52.866  0.00  0.00    +0.000 A 
ENDBRANCH  17  18
ENDBRANCH  14  17
ENDBRANCH   8  11
BRANCH  10  24
ATOM     24  C   UNL     1      21.645   6.577  50.941  0.00  0.00    +0.000 C 
BRANCH  24  25
ATOM     25  C   UNL     1      21.088   6.772  49.517  0.00  0.00    +0.000 C 
ATOM     26  C   UNL     1      19.963   7.812  49.409  0.00  0.00    +0.000 C 
ATOM     27  C   UNL     1      20.716   9.139  49.391  0.00  0.00    +0.000 C 
ATOM     28  C   UNL     1      21.954   8.821  48.563  0.00  0.00    +0.000 C 
ATOM     29  N   UNL     1      22.105   7.378  48.642  0.00  0.00    +0.000 N 
ATOM     30  C   UNL     1      23.007   6.722  47.835  0.00  0.00    +0.000 C 
ATOM     31  O   UNL     1      23.740   7.344  47.070  0.00  0.00    +0.000 OA
BRANCH  30  32
ATOM     32  N   UNL     1      22.994   5.359  47.961  0.00  0.00    +0.000 NA
ATOM     33  C   UNL     1      22.198   4.730  47.155  0.00  0.00    +0.000 C 
BRANCH  33  34
ATOM     34  C   UNL     1      22.124   3.219  47.159  0.00  0.00    +0.000 C 
BRANCH  34  35
ATOM     35  N   UNL     1      21.268   2.762  48.270  0.00  0.00    +0.000 N 
ATOM     36  C   UNL     1      19.845   2.956  47.965  0.00  0.00    +0.000 C 
ATOM     37  C   UNL     1      21.522   1.344  48.538  0.00  0.00    +0.000 C 
ATOM     38  H   UNL     1      21.494   3.318  49.095  0.00  0.00    +0.000 HD
ENDBRANCH  34  35
ENDBRANCH  33  34
ENDBRANCH  30  32
ENDBRANCH  24  25
ENDBRANCH  10  24
TORSDOF 8
ENDMDL
MODEL 6
REMARK VINA RESULT:    -8.659      2.673      6.067
REMARK INTER + INTRA:         -14.514
REMARK INTER:                 -12.950
REMARK INTRA:                  -1.565
REMARK UNBOUND:                -1.805
REMARK  Name = 
REMARK  11 active torsions:
REMARK  status: ('A' for Active; 'I' for Inactive)
REMARK    1  A    between atoms: C_1  and  C_2
REMARK    2  A    between atoms: C_8  and  C_9
REMARK    3  A    between atoms: C_12  and  O_13
REMARK    4  A    between atoms: O_13  and  C_14
REMARK    5  A    between atoms: N_23  and  C_24
REMARK    6  A    between atoms: C_24  and  C_25
REMARK    7  A    between atoms: C_30  and  N_32
REMARK    8  A    between atoms: C_33  and  C_34
REMARK    9  A    between atoms: C_34  and  N_35
REMARK   10  A    between atoms: N_35  and  C_36
REMARK   11  A    between atoms: N_35  and  C_37
REMARK                            x       y       z     vdW  Elec       q    Type
REMARK                         _______ _______ _______ _____ _____    ______ ____
ROOT
ATOM      1  C   UNL     1      21.876   0.800  53.153  0.00  0.00    +0.000 C 
ATOM      2  C   UNL     1      21.224   1.925  52.410  0.00  0.00    +0.000 A 
ATOM      3  N   UNL     1      19.859   1.883  52.381  0.00  0.00    +0.000 NA
ATOM      4  C   UNL     1      19.185   2.859  51.747  0.00  0.00    +0.000 A 
ATOM      5  N   UNL     1      19.698   3.922  51.122  0.00  0.00    +0.000 NA
ATOM      6  C   UNL     1      21.040   3.931  51.157  0.00  0.00    +0.000 A 
ATOM      7  C   UNL     1      21.867   3.005  51.776  0.00  0.00    +0.000 A 
ATOM      8  C   UNL     1      23.190   3.509  51.544  0.00  0.00    +0.000 A 
ATOM      9  N   UNL     1      23.167   4.609  50.766  0.00  0.00    +0.000 NA
ATOM     10  N   UNL     1      21.860   4.855  50.571  0.00  0.00    +0.000 N 
ENDROOT
BRANCH   8  11
ATOM     11  C   UNL     1      24.474   3.013  52.041  0.00  0.00    +0.000 A 
ATOM     12  C   UNL     1      24.654   2.761  53.409  0.00  0.00    +0.000 A 
ATOM     13  C   UNL     1      25.858   2.231  53.880  0.00  0.00    +0.000 A 
ATOM     14  C   UNL     1      26.875   1.906  52.978  0.00  0.00    +0.000 A 
ATOM     15  C   UNL     1      26.727   2.202  51.626  0.00  0.00    +0.000 A 
ATOM     16  C   UNL     1      25.520   2.722  51.158  0.00  0.00    +0.000 A 
BRANCH  14  17
ATOM     17  O   UNL     1      28.063   1.319  53.339  0.00  0.00    +0.000 OA
BRANCH  17  18
ATOM     18  C   UNL     1      28.210  -0.044  53.204  0.00  0.00    +0.000 A 
ATOM     19  C   UNL     1      27.221  -0.922  52.749  0.00  0.00    +0.000 A 
ATOM     20  C   UNL     1      27.461  -2.296  52.728  0.00  0.00    +0.000 A 
ATOM     21  C   UNL     1      28.709  -2.791  53.104  0.00  0.00    +0.000 A 
ATOM     22  C   UNL     1      29.723  -1.912  53.481  0.00  0.00    +0.000 A 
ATOM     23  C   UNL     1      29.474  -0.540  53.529  0.00  0.00    +0.000 A 
ENDBRANCH  17  18
ENDBRANCH  14  17
ENDBRANCH   8  11
BRANCH  10  24
ATOM     24  C   UNL     1      21.441   6.057  49.870  0.00  0.00    +0.000 C 
BRANCH  24  25
ATOM     25  C   UNL     1      22.305   6.422  48.647  0.00  0.00    +0.000 C 
ATOM     26  C   UNL     1      21.848   5.781  47.329  0.00  0.00    +0.000 C 
ATOM     27  C   UNL     1      20.692   6.674  46.889  0.00  0.00    +0.000 C 
ATOM     28  C   UNL     1      21.162   8.067  47.289  0.00  0.00    +0.000 C 
ATOM     29  N   UNL     1      22.162   7.850  48.320  0.00  0.00    +0.000 N 
ATOM     30  C   UNL     1      22.950   8.889  48.763  0.00  0.00    +0.000 C 
ATOM     31  O   UNL     1      22.791  10.029  48.336  0.00  0.00    +0.000 OA
BRANCH  30  32
ATOM     32  N   UNL     1      23.898   8.530  49.684  0.00  0.00    +0.000 NA
ATOM     33  C   UNL     1      25.117   8.495  49.246  0.00  0.00    +0.000 C 
BRANCH  33  34
ATOM     34  C   UNL     1      26.264   8.159  50.174  0.00  0.00    +0.000 C 
BRANCH  34  35
ATOM     35  N   UNL     1      27.103   7.105  49.572  0.00  0.00    +0.000 N 
ATOM     36  C   UNL     1      26.286   6.006  49.045  0.00  0.00    +0.000 C 
ATOM     37  C   UNL     1      27.911   7.676  48.492  0.00  0.00    +0.000 C 
ATOM     38  H   UNL     1      27.710   6.729  50.300  0.00  0.00    +0.000 HD
ENDBRANCH  34  35
ENDBRANCH  33  34
ENDBRANCH  30  32
ENDBRANCH  24  25
ENDBRANCH  10  24
TORSDOF 8
ENDMDL
MODEL 7
REMARK VINA RESULT:    -8.540      2.841      6.194
REMARK INTER + INTRA:         -14.340
REMARK INTER:                 -12.362
REMARK INTRA:                  -1.978
REMARK UNBOUND:                -1.805
REMARK  Name = 
REMARK  11 active torsions:
REMARK  status: ('A' for Active; 'I' for Inactive)
REMARK    1  A    between atoms: C_1  and  C_2
REMARK    2  A    between atoms: C_8  and  C_9
REMARK    3  A    between atoms: C_12  and  O_13
REMARK    4  A    between atoms: O_13  and  C_14
REMARK    5  A    between atoms: N_23  and  C_24
REMARK    6  A    between atoms: C_24  and  C_25
REMARK    7  A    between atoms: C_30  and  N_32
REMARK    8  A    between atoms: C_33  and  C_34
REMARK    9  A    between atoms: C_34  and  N_35
REMARK   10  A    between atoms: N_35  and  C_36
REMARK   11  A    between atoms: N_35  and  C_37
REMARK                            x       y       z     vdW  Elec       q    Type
REMARK                         _______ _______ _______ _____ _____    ______ ____
ROOT
ATOM      1  C   UNL     1      24.729   0.761  53.330  0.00  0.00    +0.000 C 
ATOM      2  C   UNL     1      23.360   0.160  53.425  0.00  0.00    +0.000 A 
ATOM      3  N   UNL     1      23.232  -0.845  54.340  0.00  0.00    +0.000 NA
ATOM      4  C   UNL     1      22.035  -1.436  54.505  0.00  0.00    +0.000 A 
ATOM      5  N   UNL     1      20.897  -1.148  53.869  0.00  0.00    +0.000 NA
ATOM      6  C   UNL     1      21.055  -0.165  52.968  0.00  0.00    +0.000 A 
ATOM      7  C   UNL     1      22.217   0.541  52.696  0.00  0.00    +0.000 A 
ATOM      8  C   UNL     1      21.823   1.489  51.694  0.00  0.00    +0.000 A 
ATOM      9  N   UNL     1      20.538   1.309  51.326  0.00  0.00    +0.000 NA
ATOM     10  N   UNL     1      20.094   0.325  52.127  0.00  0.00    +0.000 N 
ENDROOT
BRANCH   8  11
ATOM     11  C   UNL     1      22.594   2.573  51.084  0.00  0.00    +0.000 A 
ATOM     12  C   UNL     1      22.904   2.538  49.716  0.00  0.00    +0.000 A 
ATOM     13  C   UNL     1      23.589   3.598  49.117  0.00  0.00    +0.000 A 
ATOM     14  C   UNL     1      23.928   4.723  49.874  0.00  0.00    +0.000 A 
ATOM     15  C   UNL     1      23.673   4.744  51.241  0.00  0.00    +0.000 A 
ATOM     16  C   UNL     1      22.981   3.688  51.834  0.00  0.00    +0.000 A 
BRANCH  14  17
ATOM     17  O   UNL     1      24.538   5.840  49.357  0.00  0.00    +0.000 OA
BRANCH  17  18
ATOM     18  C   UNL     1      25.857   5.769  48.966  0.00  0.00    +0.000 A 
ATOM     19  C   UNL     1      26.661   4.627  49.040  0.00  0.00    +0.000 A 
ATOM     20  C   UNL     1      28.008   4.695  48.685  0.00  0.00    +0.000 A 
ATOM     21  C   UNL     1      28.541   5.888  48.199  0.00  0.00    +0.000 A 
ATOM     22  C   UNL     1      27.722   7.007  48.048  0.00  0.00    +0.000 A 
ATOM     23  C   UNL     1      26.381   6.946  48.430  0.00  0.00    +0.000 A 
ENDBRANCH  17  18
ENDBRANCH  14  17
ENDBRANCH   8  11
BRANCH  10  24
ATOM     24  C   UNL     1      18.693  -0.058  52.102  0.00  0.00    +0.000 C 
BRANCH  24  25
ATOM     25  C   UNL     1      17.857   0.633  51.007  0.00  0.00    +0.000 C 
ATOM     26  C   UNL     1      16.991  -0.319  50.170  0.00  0.00    +0.000 C 
ATOM     27  C   UNL     1      15.779  -0.564  51.063  0.00  0.00    +0.000 C 
ATOM     28  C   UNL     1      15.547   0.795  51.710  0.00  0.00    +0.000 C 
ATOM     29  N   UNL     1      16.821   1.487  51.609  0.00  0.00    +0.000 N 
ATOM     30  C   UNL     1      16.916   2.828  51.909  0.00  0.00    +0.000 C 
ATOM     31  O   UNL     1      15.943   3.455  52.317  0.00  0.00    +0.000 OA
BRANCH  30  32
ATOM     32  N   UNL     1      18.157   3.368  51.702  0.00  0.00    +0.000 NA
ATOM     33  C   UNL     1      18.286   4.076  50.625  0.00  0.00    +0.000 C 
BRANCH  33  34
ATOM     34  C   UNL     1      19.594   4.768  50.304  0.00  0.00    +0.000 C 
BRANCH  34  35
ATOM     35  N   UNL     1      19.982   4.483  48.910  0.00  0.00    +0.000 N 
ATOM     36  C   UNL     1      19.419   3.209  48.447  0.00  0.00    +0.000 C 
ATOM     37  C   UNL     1      19.520   5.567  48.038  0.00  0.00    +0.000 C 
ATOM     38  H   UNL     1      20.999   4.414  48.871  0.00  0.00    +0.000 HD
ENDBRANCH  34  35
ENDBRANCH  33  34
ENDBRANCH  30  32
ENDBRANCH  24  25
ENDBRANCH  10  24
TORSDOF 8
ENDMDL
MODEL 8
REMARK VINA RESULT:    -8.395      3.432      7.351
REMARK INTER + INTRA:         -14.127
REMARK INTER:                 -12.545
REMARK INTRA:                  -1.581
REMARK UNBOUND:                -1.805
REMARK  Name = 
REMARK  11 active torsions:
REMARK  status: ('A' for Active; 'I' for Inactive)
REMARK    1  A    between atoms: C_1  and  C_2
REMARK    2  A    between atoms: C_8  and  C_9
REMARK    3  A    between atoms: C_12  and  O_13
REMARK    4  A    between atoms: O_13  and  C_14
REMARK    5  A    between atoms: N_23  and  C_24
REMARK    6  A    between atoms: C_24  and  C_25
REMARK    7  A    between atoms: C_30  and  N_32
REMARK    8  A    between atoms: C_33  and  C_34
REMARK    9  A    between atoms: C_34  and  N_35
REMARK   10  A    between atoms: N_35  and  C_36
REMARK   11  A    between atoms: N_35  and  C_37
REMARK                            x       y       z     vdW  Elec       q    Type
REMARK                         _______ _______ _______ _____ _____    ______ ____
ROOT
ATOM      1  C   UNL     1      22.244   1.775  49.109  0.00  0.00    +0.000 C 
ATOM      2  C   UNL     1      22.394   3.162  48.566  0.00  0.00    +0.000 A 
ATOM      3  N   UNL     1      21.512   3.494  47.577  0.00  0.00    +0.000 NA
ATOM      4  C   UNL     1      21.563   4.724  47.037  0.00  0.00    +0.000 A 
ATOM      5  N   UNL     1      22.396   5.717  47.362  0.00  0.00    +0.000 NA
ATOM      6  C   UNL     1      23.258   5.359  48.327  0.00  0.00    +0.000 A 
ATOM      7  C   UNL     1      23.320   4.138  48.982  0.00  0.00    +0.000 A 
ATOM      8  C   UNL     1      24.381   4.306  49.933  0.00  0.00    +0.000 A 
ATOM      9  N   UNL     1      24.974   5.509  49.800  0.00  0.00    +0.000 NA
ATOM     10  N   UNL     1      24.261   6.130  48.844  0.00  0.00    +0.000 N 
ENDROOT
BRANCH   8  11
ATOM     11  C   UNL     1      24.848   3.392  50.977  0.00  0.00    +0.000 A 
ATOM     12  C   UNL     1      24.182   3.328  52.211  0.00  0.00    +0.000 A 
ATOM     13  C   UNL     1      24.587   2.416  53.188  0.00  0.00    +0.000 A 
ATOM     14  C   UNL     1      25.633   1.528  52.920  0.00  0.00    +0.000 A 
ATOM     15  C   UNL     1      26.333   1.620  51.721  0.00  0.00    +0.000 A 
ATOM     16  C   UNL     1      25.920   2.525  50.744  0.00  0.00    +0.000 A 
BRANCH  14  17
ATOM     17  O   UNL     1      26.053   0.552  53.790  0.00  0.00    +0.000 OA
BRANCH  17  18
ATOM     18  C   UNL     1      27.367   0.140  53.759  0.00  0.00    +0.000 A 
ATOM     19  C   UNL     1      28.459   0.890  54.209  0.00  0.00    +0.000 A 
ATOM     20  C   UNL     1      29.755   0.398  54.055  0.00  0.00    +0.000 A 
ATOM     21  C   UNL     1      29.961  -0.867  53.507  0.00  0.00    +0.000 A 
ATOM     22  C   UNL     1      28.869  -1.650  53.132  0.00  0.00    +0.000 A 
ATOM     23  C   UNL     1      27.574  -1.147  53.260  0.00  0.00    +0.000 A 
ENDBRANCH  17  18
ENDBRANCH  14  17
ENDBRANCH   8  11
BRANCH  10  24
ATOM     24  C   UNL     1      24.537   7.519  48.517  0.00  0.00    +0.000 C 
BRANCH  24  25
ATOM     25  C   UNL     1      25.391   7.723  47.250  0.00  0.00    +0.000 C 
ATOM     26  C   UNL     1      24.626   8.302  46.051  0.00  0.00    +0.000 C 
ATOM     27  C   UNL     1      24.571   9.794  46.361  0.00  0.00    +0.000 C 
ATOM     28  C   UNL     1      25.932  10.067  46.987  0.00  0.00    +0.000 C 
ATOM     29  N   UNL     1      26.395   8.777  47.468  0.00  0.00    +0.000 N 
ATOM     30  C   UNL     1      27.690   8.616  47.907  0.00  0.00    +0.000 C 
ATOM     31  O   UNL     1      28.466   9.567  47.951  0.00  0.00    +0.000 OA
BRANCH  30  32
ATOM     32  N   UNL     1      28.013   7.334  48.264  0.00  0.00    +0.000 NA
ATOM     33  C   UNL     1      29.151   6.901  47.822  0.00  0.00    +0.000 C 
BRANCH  33  34
ATOM     34  C   UNL     1      29.648   5.518  48.184  0.00  0.00    +0.000 C 
BRANCH  34  35
ATOM     35  N   UNL     1      31.122   5.505  48.208  0.00  0.00    +0.000 N 
ATOM     36  C   UNL     1      31.663   4.423  47.375  0.00  0.00    +0.000 C 
ATOM     37  C   UNL     1      31.634   6.792  47.730  0.00  0.00    +0.000 C 
ATOM     38  H   UNL     1      31.423   5.346  49.170  0.00  0.00    +0.000 HD
ENDBRANCH  34  35
ENDBRANCH  33  34
ENDBRANCH  30  32
ENDBRANCH  24  25
ENDBRANCH  10  24
TORSDOF 8
ENDMDL
MODEL 9
REMARK VINA RESULT:    -8.162      3.437      9.530
REMARK INTER + INTRA:         -13.785
REMARK INTER:                 -11.172
REMARK INTRA:                  -2.612
REMARK UNBOUND:                -1.805
REMARK  Name = 
REMARK  11 active torsions:
REMARK  status: ('A' for Active; 'I' for Inactive)
REMARK    1  A    between atoms: C_1  and  C_2
REMARK    2  A    between atoms: C_8  and  C_9
REMARK    3  A    between atoms: C_12  and  O_13
REMARK    4  A    between atoms: O_13  and  C_14
REMARK    5  A    between atoms: N_23  and  C_24
REMARK    6  A    between atoms: C_24  and  C_25
REMARK    7  A    between atoms: C_30  and  N_32
REMARK    8  A    between atoms: C_33  and  C_34
REMARK    9  A    between atoms: C_34  and  N_35
REMARK   10  A    between atoms: N_35  and  C_36
REMARK   11  A    between atoms: N_35  and  C_37
REMARK                            x       y       z     vdW  Elec       q    Type
REMARK                         _______ _______ _______ _____ _____    ______ ____
ROOT
ATOM      1  C   UNL     1      18.513   3.613  47.671  0.00  0.00    +0.000 C 
ATOM      2  C   UNL     1      19.696   2.890  48.237  0.00  0.00    +0.000 A 
ATOM      3  N   UNL     1      20.846   3.005  47.510  0.00  0.00    +0.000 NA
ATOM      4  C   UNL     1      21.964   2.400  47.947  0.00  0.00    +0.000 A 
ATOM      5  N   UNL     1      22.109   1.675  49.060  0.00  0.00    +0.000 NA
ATOM      6  C   UNL     1      20.961   1.569  49.748  0.00  0.00    +0.000 A 
ATOM      7  C   UNL     1      19.738   2.142  49.429  0.00  0.00    +0.000 A 
ATOM      8  C   UNL     1      18.877   1.749  50.508  0.00  0.00    +0.000 A 
ATOM      9  N   UNL     1      19.510   0.927  51.368  0.00  0.00    +0.000 NA
ATOM     10  N   UNL     1      20.769   0.857  50.900  0.00  0.00    +0.000 N 
ENDROOT
BRANCH   8  11
ATOM     11  C   UNL     1      17.491   2.133  50.777  0.00  0.00    +0.000 A 
ATOM     12  C   UNL     1      17.207   3.210  51.629  0.00  0.00    +0.000 A 
ATOM     13  C   UNL     1      15.887   3.617  51.842  0.00  0.00    +0.000 A 
ATOM     14  C   UNL     1      14.845   2.977  51.167  0.00  0.00    +0.000 A 
ATOM     15  C   UNL     1      15.111   1.874  50.362  0.00  0.00    +0.000 A 
ATOM     16  C   UNL     1      16.430   1.476  50.144  0.00  0.00    +0.000 A 
BRANCH  14  17
ATOM     17  O   UNL     1      13.526   3.351  51.259  0.00  0.00    +0.000 OA
BRANCH  17  18
ATOM     18  C   UNL     1      12.913   3.364  52.492  0.00  0.00    +0.000 A 
ATOM     19  C   UNL     1      12.647   4.509  53.249  0.00  0.00    +0.000 A 
ATOM     20  C   UNL     1      12.089   4.392  54.522  0.00  0.00    +0.000 A 
ATOM     21  C   UNL     1      11.739   3.137  55.017  0.00  0.00    +0.000 A 
ATOM     22  C   UNL     1      11.928   2.001  54.231  0.00  0.00    +0.000 A 
ATOM     23  C   UNL     1      12.513   2.115  52.969  0.00  0.00    +0.000 A 
ENDBRANCH  17  18
ENDBRANCH  14  17
ENDBRANCH   8  11
BRANCH  10  24
ATOM     24  C   UNL     1      21.788   0.148  51.654  0.00  0.00    +0.000 C 
BRANCH  24  25
ATOM     25  C   UNL     1      22.102   0.754  53.037  0.00  0.00    +0.000 C 
ATOM     26  C   UNL     1      22.336  -0.280  54.148  0.00  0.00    +0.000 C 
ATOM     27  C   UNL     1      23.778  -0.720  53.916  0.00  0.00    +0.000 C 
ATOM     28  C   UNL     1      24.470   0.571  53.501  0.00  0.00    +0.000 C 
ATOM     29  N   UNL     1      23.406   1.435  53.019  0.00  0.00    +0.000 N 
ATOM     30  C   UNL     1      23.648   2.765  52.757  0.00  0.00    +0.000 C 
ATOM     31  O   UNL     1      24.775   3.238  52.873  0.00  0.00    +0.000 OA
BRANCH  30  32
ATOM     32  N   UNL     1      22.542   3.479  52.378  0.00  0.00    +0.000 NA
ATOM     33  C   UNL     1      22.769   4.493  51.604  0.00  0.00    +0.000 C 
BRANCH  33  34
ATOM     34  C   UNL     1      21.629   5.336  51.076  0.00  0.00    +0.000 C 
BRANCH  34  35
ATOM     35  N   UNL     1      21.702   5.412  49.604  0.00  0.00    +0.000 N 
ATOM     36  C   UNL     1      20.716   6.358  49.068  0.00  0.00    +0.000 C 
ATOM     37  C   UNL     1      23.048   5.824  49.198  0.00  0.00    +0.000 C 
ATOM     38  H   UNL     1      21.492   4.487  49.228  0.00  0.00    +0.000 HD
ENDBRANCH  34  35
ENDBRANCH  33  34
ENDBRANCH  30  32
ENDBRANCH  24  25
ENDBRANCH  10  24
TORSDOF 8
ENDMDL
