MODEL 1
REMARK VINA RESULT:    -8.900      0.000      0.000
REMARK INTER + INTRA:         -13.912
REMARK INTER:                 -12.542
REMARK INTRA:                  -1.369
REMARK UNBOUND:                -1.369
REMARK  Name = 
REMARK  10 active torsions:
REMARK  status: ('A' for Active; 'I' for Inactive)
REMARK    1  A    between atoms: C_1  and  O_2
REMARK    2  A    between atoms: O_2  and  C_3
REMARK    3  A    between atoms: C_9  and  N_10
REMARK    4  A    between atoms: N_10  and  C_11
REMARK    5  A    between atoms: C_21  and  C_22
REMARK    6  A    between atoms: C_22  and  N_23
REMARK    7  A    between atoms: N_23  and  C_24
REMARK    8  A    between atoms: N_23  and  C_25
REMARK    9  A    between atoms: C_25  and  C_26
REMARK   10  A    between atoms: C_25  and  C_27
REMARK                            x       y       z     vdW  Elec       q    Type
REMARK                         _______ _______ _______ _____ _____    ______ ____
ROOT
ATOM      1  C   UNL     1      20.544   1.896  52.591  0.00  0.00    +0.000 A 
ATOM      2  C   UNL     1      20.636   0.932  53.602  0.00  0.00    +0.000 A 
ATOM      3  C   UNL     1      21.814   0.265  53.877  0.00  0.00    +0.000 A 
ATOM      4  N   UNL     1      21.817  -0.567  54.922  0.00  0.00    +0.000 NA
ATOM      5  C   UNL     1      22.965  -1.188  55.187  0.00  0.00    +0.000 A 
ATOM      6  N   UNL     1      24.087  -1.083  54.478  0.00  0.00    +0.000 NA
ATOM      7  C   UNL     1      24.063  -0.260  53.408  0.00  0.00    +0.000 A 
ATOM      8  C   UNL     1      22.928   0.497  53.063  0.00  0.00    +0.000 A 
ATOM      9  C   UNL     1      22.824   1.423  51.984  0.00  0.00    +0.000 A 
ATOM     10  C   UNL     1      21.644   2.154  51.758  0.00  0.00    +0.000 A 
ENDROOT
BRANCH   1  12
ATOM     11  C   UNL     1      18.386   1.894  51.638  0.00  0.00    +0.000 C 
ATOM     12  O   UNL     1      19.392   2.604  52.358  0.00  0.00    +0.000 OA
ENDBRANCH   1  12
BRANCH   7  13
ATOM     13  N   UNL     1      25.234  -0.178  52.615  0.00  0.00    +0.000 N 
ATOM     14  H   UNL     1      25.175  -0.492  51.684  0.00  0.00    +0.000 HD
BRANCH  13  15
ATOM     15  C   UNL     1      26.483   0.321  53.061  0.00  0.00    +0.000 A 
ATOM     16  C   UNL     1      26.643   1.665  53.427  0.00  0.00    +0.000 A 
ATOM     17  C   UNL     1      27.856   2.146  53.927  0.00  0.00    +0.000 A 
ATOM     18  C   UNL     1      28.928   1.273  54.093  0.00  0.00    +0.000 A 
ATOM     19  C   UNL     1      28.780  -0.074  53.761  0.00  0.00    +0.000 A 
ATOM     20 CL   UNL     1      30.111  -1.145  53.990  0.00  0.00    +0.000 Cl
ATOM     21  C   UNL     1      27.565  -0.545  53.259  0.00  0.00    +0.000 A 
ATOM     22  F   UNL     1      27.421  -1.846  52.946  0.00  0.00    +0.000 F 
ENDBRANCH  13  15
ENDBRANCH   7  13
BRANCH  10  23
ATOM     23  C   UNL     1      21.603   3.246  50.693  0.00  0.00    +0.000 C 
BRANCH  23  24
ATOM     24  N   UNL     1      22.906   3.867  50.364  0.00  0.00    +0.000 N 
ATOM     25  C   UNL     1      23.194   3.724  48.928  0.00  0.00    +0.000 C 
ATOM     26  H   UNL     1      23.615   3.382  50.913  0.00  0.00    +0.000 HD
BRANCH  24  27
ATOM     27  C   UNL     1      22.943   5.329  50.730  0.00  0.00    +0.000 C 
ATOM     28  C   UNL     1      21.588   6.024  50.911  0.00  0.00    +0.000 C 
BRANCH  27  29
ATOM     29  C   UNL     1      23.835   5.590  51.967  0.00  0.00    +0.000 C 
ATOM     30  N   UNL     1      24.379   6.839  52.047  0.00  0.00    +0.000 N 
ATOM     31  O   UNL     1      24.003   4.787  52.880  0.00  0.00    +0.000 OA
ATOM     32  H   UNL     1      24.246   7.482  51.315  0.00  0.00    +0.000 HD
ATOM     33  H   UNL     1      24.907   7.095  52.839  0.00  0.00    +0.000 HD
ENDBRANCH  27  29
ENDBRANCH  24  27
ENDBRANCH  23  24
ENDBRANCH  10  23
TORSDOF 7
ENDMDL
MODEL 2
REMARK VINA RESULT:    -8.706      1.122      1.465
REMARK INTER + INTRA:         -13.638
REMARK INTER:                 -12.311
REMARK INTRA:                  -1.327
REMARK UNBOUND:                -1.369
REMARK  Name = 
REMARK  10 active torsions:
REMARK  status: ('A' for Active; 'I' for Inactive)
REMARK    1  A    between atoms: C_1  and  O_2
REMARK    2  A    between atoms: O_2  and  C_3
REMARK    3  A    between atoms: C_9  and  N_10
REMARK    4  A    between atoms: N_10  and  C_11
REMARK    5  A    between atoms: C_21  and  C_22
REMARK    6  A    between atoms: C_22  and  N_23
REMARK    7  A    between atoms: N_23  and  C_24
REMARK    8  A    between atoms: N_23  and  C_25
REMARK    9  A    between atoms: C_25  and  C_26
REMARK   10  A    between atoms: C_25  and  C_27
REMARK                            x       y       z     vdW  Elec       q    Type
REMARK                         _______ _______ _______ _____ _____    ______ ____
ROOT
ATOM      1  C   UNL     1      20.660   1.766  52.194  0.00  0.00    +0.000 A 
ATOM      2  C   UNL     1      20.781   0.831  53.229  0.00  0.00    +0.000 A 
ATOM      3  C   UNL     1      21.996   0.272  53.576  0.00  0.00    +0.000 A 
ATOM      4  N   UNL     1      22.016  -0.538  54.639  0.00  0.00    +0.000 NA
ATOM      5  C   UNL     1      23.197  -1.054  54.974  0.00  0.00    +0.000 A 
ATOM      6  N   UNL     1      24.341  -0.865  54.319  0.00  0.00    +0.000 NA
ATOM      7  C   UNL     1      24.302  -0.066  53.232  0.00  0.00    +0.000 A 
ATOM      8  C   UNL     1      23.127   0.585  52.814  0.00  0.00    +0.000 A 
ATOM      9  C   UNL     1      23.000   1.479  51.712  0.00  0.00    +0.000 A 
ATOM     10  C   UNL     1      21.775   2.102  51.412  0.00  0.00    +0.000 A 
ENDROOT
BRANCH   1  12
ATOM     11  C   UNL     1      18.465   1.491  51.373  0.00  0.00    +0.000 C 
ATOM     12  O   UNL     1      19.465   2.367  51.889  0.00  0.00    +0.000 OA
ENDBRANCH   1  12
BRANCH   7  13
ATOM     13  N   UNL     1      25.501   0.103  52.497  0.00  0.00    +0.000 N 
ATOM     14  H   UNL     1      25.422   0.377  51.555  0.00  0.00    +0.000 HD
BRANCH  13  15
ATOM     15  C   UNL     1      26.805  -0.093  53.015  0.00  0.00    +0.000 A 
ATOM     16  C   UNL     1      27.475  -1.316  52.864  0.00  0.00    +0.000 A 
ATOM     17  C   UNL     1      28.784  -1.492  53.318  0.00  0.00    +0.000 A 
ATOM     18  C   UNL     1      29.457  -0.428  53.913  0.00  0.00    +0.000 A 
ATOM     19  C   UNL     1      28.818   0.805  54.047  0.00  0.00    +0.000 A 
ATOM     20 CL   UNL     1      29.672   2.117  54.769  0.00  0.00    +0.000 Cl
ATOM     21  C   UNL     1      27.508   0.971  53.594  0.00  0.00    +0.000 A 
ATOM     22  F   UNL     1      26.895   2.162  53.717  0.00  0.00    +0.000 F 
ENDBRANCH  13  15
ENDBRANCH   7  13
BRANCH  10  23
ATOM     23  C   UNL     1      21.696   3.168  50.322  0.00  0.00    +0.000 C 
BRANCH  23  24
ATOM     24  N   UNL     1      22.913   3.994  50.147  0.00  0.00    +0.000 N 
ATOM     25  C   UNL     1      23.210   4.170  48.716  0.00  0.00    +0.000 C 
ATOM     26  H   UNL     1      23.678   3.499  50.604  0.00  0.00    +0.000 HD
BRANCH  24  27
ATOM     27  C   UNL     1      22.773   5.348  50.792  0.00  0.00    +0.000 C 
ATOM     28  C   UNL     1      21.360   5.762  51.218  0.00  0.00    +0.000 C 
BRANCH  27  29
ATOM     29  C   UNL     1      23.751   5.525  51.978  0.00  0.00    +0.000 C 
ATOM     30  N   UNL     1      24.419   6.713  52.019  0.00  0.00    +0.000 N 
ATOM     31  O   UNL     1      23.886   4.712  52.888  0.00  0.00    +0.000 OA
ATOM     32  H   UNL     1      24.312   7.365  51.289  0.00  0.00    +0.000 HD
ATOM     33  H   UNL     1      25.010   6.919  52.780  0.00  0.00    +0.000 HD
ENDBRANCH  27  29
ENDBRANCH  24  27
ENDBRANCH  23  24
ENDBRANCH  10  23
TORSDOF 7
ENDMDL
MODEL 3
REMARK VINA RESULT:    -8.540      3.587      6.074
REMARK INTER + INTRA:         -13.404
REMARK INTER:                 -11.761
REMARK INTRA:                  -1.643
REMARK UNBOUND:                -1.369
REMARK  Name = 
REMARK  10 active torsions:
REMARK  status: ('A' for Active; 'I' for Inactive)
REMARK    1  A    between atoms: C_1  and  O_2
REMARK    2  A    between atoms: O_2  and  C_3
REMARK    3  A    between atoms: C_9  and  N_10
REMARK    4  A    between atoms: N_10  and  C_11
REMARK    5  A    between atoms: C_21  and  C_22
REMARK    6  A    between atoms: C_22  and  N_23
REMARK    7  A    between atoms: N_23  and  C_24
REMARK    8  A    between atoms: N_23  and  C_25
REMARK    9  A    between atoms: C_25  and  C_26
REMARK   10  A    between atoms: C_25  and  C_27
REMARK                            x       y       z     vdW  Elec       q    Type
REMARK                         _______ _______ _______ _____ _____    ______ ____
ROOT
ATOM      1  C   UNL     1      23.193   0.147  53.357  0.00  0.00    +0.000 A 
ATOM      2  C   UNL     1      24.495   0.292  53.849  0.00  0.00    +0.000 A 
ATOM      3  C   UNL     1      25.444   1.060  53.203  0.00  0.00    +0.000 A 
ATOM      4  N   UNL     1      26.627   1.207  53.806  0.00  0.00    +0.000 NA
ATOM      5  C   UNL     1      27.525   1.967  53.182  0.00  0.00    +0.000 A 
ATOM      6  N   UNL     1      27.359   2.551  51.997  0.00  0.00    +0.000 NA
ATOM      7  C   UNL     1      26.168   2.373  51.385  0.00  0.00    +0.000 A 
ATOM      8  C   UNL     1      25.119   1.642  51.973  0.00  0.00    +0.000 A 
ATOM      9  C   UNL     1      23.819   1.440  51.427  0.00  0.00    +0.000 A 
ATOM     10  C   UNL     1      22.835   0.719  52.127  0.00  0.00    +0.000 A 
ENDROOT
BRANCH   1  12
ATOM     11  C   UNL     1      22.718  -1.358  55.112  0.00  0.00    +0.000 C 
ATOM     12  O   UNL     1      22.232  -0.565  54.029  0.00  0.00    +0.000 OA
ENDBRANCH   1  12
BRANCH   7  13
ATOM     13  N   UNL     1      25.996   2.947  50.102  0.00  0.00    +0.000 N 
ATOM     14  H   UNL     1      25.782   2.340  49.358  0.00  0.00    +0.000 HD
BRANCH  13  15
ATOM     15  C   UNL     1      26.111   4.329  49.809  0.00  0.00    +0.000 A 
ATOM     16  C   UNL     1      27.057   4.803  48.889  0.00  0.00    +0.000 A 
ATOM     17  C   UNL     1      27.130   6.156  48.550  0.00  0.00    +0.000 A 
ATOM     18  C   UNL     1      26.231   7.059  49.115  0.00  0.00    +0.000 A 
ATOM     19  C   UNL     1      25.265   6.601  50.010  0.00  0.00    +0.000 A 
ATOM     20 CL   UNL     1      24.148   7.727  50.685  0.00  0.00    +0.000 Cl
ATOM     21  C   UNL     1      25.201   5.248  50.346  0.00  0.00    +0.000 A 
ATOM     22  F   UNL     1      24.264   4.806  51.204  0.00  0.00    +0.000 F 
ENDBRANCH  13  15
ENDBRANCH   7  13
BRANCH  10  23
ATOM     23  C   UNL     1      21.406   0.642  51.594  0.00  0.00    +0.000 C 
BRANCH  23  24
ATOM     24  N   UNL     1      20.355   1.146  52.506  0.00  0.00    +0.000 N 
ATOM     25  C   UNL     1      20.355   2.618  52.525  0.00  0.00    +0.000 C 
ATOM     26  H   UNL     1      20.568   0.785  53.436  0.00  0.00    +0.000 HD
BRANCH  24  27
ATOM     27  C   UNL     1      18.985   0.659  52.111  0.00  0.00    +0.000 C 
ATOM     28  C   UNL     1      18.700   0.557  50.608  0.00  0.00    +0.000 C 
BRANCH  27  29
ATOM     29  C   UNL     1      18.627  -0.677  52.805  0.00  0.00    +0.000 C 
ATOM     30  N   UNL     1      19.353  -0.976  53.920  0.00  0.00    +0.000 N 
ATOM     31  O   UNL     1      17.703  -1.409  52.459  0.00  0.00    +0.000 OA
ATOM     32  H   UNL     1      20.094  -0.390  54.197  0.00  0.00    +0.000 HD
ATOM     33  H   UNL     1      19.137  -1.779  54.447  0.00  0.00    +0.000 HD
ENDBRANCH  27  29
ENDBRANCH  24  27
ENDBRANCH  23  24
ENDBRANCH  10  23
TORSDOF 7
ENDMDL
MODEL 4
REMARK VINA RESULT:    -8.349      2.535      3.303
REMARK INTER + INTRA:         -13.135
REMARK INTER:                 -12.050
REMARK INTRA:                  -1.085
REMARK UNBOUND:                -1.369
REMARK  Name = 
REMARK  10 active torsions:
REMARK  status: ('A' for Active; 'I' for Inactive)
REMARK    1  A    between atoms: C_1  and  O_2
REMARK    2  A    between atoms: O_2  and  C_3
REMARK    3  A    between atoms: C_9  and  N_10
REMARK    4  A    between atoms: N_10  and  C_11
REMARK    5  A    between atoms: C_21  and  C_22
REMARK    6  A    between atoms: C_22  and  N_23
REMARK    7  A    between atoms: N_23  and  C_24
REMARK    8  A    between atoms: N_23  and  C_25
REMARK    9  A    between atoms: C_25  and  C_26
REMARK   10  A    between atoms: C_25  and  C_27
REMARK                            x       y       z     vdW  Elec       q    Type
REMARK                         _______ _______ _______ _____ _____    ______ ____
ROOT
ATOM      1  C   UNL     1      19.607  -0.148  52.651  0.00  0.00    +0.000 A 
ATOM      2  C   UNL     1      20.156  -0.850  53.730  0.00  0.00    +0.000 A 
ATOM      3  C   UNL     1      21.511  -0.850  53.996  0.00  0.00    +0.000 A 
ATOM      4  N   UNL     1      21.919  -1.475  55.104  0.00  0.00    +0.000 NA
ATOM      5  C   UNL     1      23.226  -1.449  55.358  0.00  0.00    +0.000 A 
ATOM      6  N   UNL     1      24.156  -0.894  54.584  0.00  0.00    +0.000 NA
ATOM      7  C   UNL     1      23.734  -0.288  53.453  0.00  0.00    +0.000 A 
ATOM      8  C   UNL     1      22.373  -0.197  53.108  0.00  0.00    +0.000 A 
ATOM      9  C   UNL     1      21.832   0.459  51.965  0.00  0.00    +0.000 A 
ATOM     10  C   UNL     1      20.444   0.518  51.743  0.00  0.00    +0.000 A 
ENDROOT
BRANCH   1  12
ATOM     11  C   UNL     1      17.521  -1.220  52.909  0.00  0.00    +0.000 C 
ATOM     12  O   UNL     1      18.255  -0.097  52.422  0.00  0.00    +0.000 OA
ENDBRANCH   1  12
BRANCH   7  13
ATOM     13  N   UNL     1      24.719   0.262  52.596  0.00  0.00    +0.000 N 
ATOM     14  H   UNL     1      24.442   0.502  51.682  0.00  0.00    +0.000 HD
BRANCH  13  15
ATOM     15  C   UNL     1      26.070   0.492  52.954  0.00  0.00    +0.000 A 
ATOM     16  C   UNL     1      26.499   1.744  53.418  0.00  0.00    +0.000 A 
ATOM     17  C   UNL     1      27.816   1.957  53.831  0.00  0.00    +0.000 A 
ATOM     18  C   UNL     1      28.725   0.902  53.808  0.00  0.00    +0.000 A 
ATOM     19  C   UNL     1      28.310  -0.358  53.377  0.00  0.00    +0.000 A 
ATOM     20 CL   UNL     1      29.442  -1.658  53.373  0.00  0.00    +0.000 Cl
ATOM     21  C   UNL     1      26.993  -0.561  52.963  0.00  0.00    +0.000 A 
ATOM     22  F   UNL     1      26.591  -1.778  52.553  0.00  0.00    +0.000 F 
ENDBRANCH  13  15
ENDBRANCH   7  13
BRANCH  10  23
ATOM     23  C   UNL     1      19.879   1.352  50.596  0.00  0.00    +0.000 C 
BRANCH  23  24
ATOM     24  N   UNL     1      19.301   2.660  50.981  0.00  0.00    +0.000 N 
ATOM     25  C   UNL     1      20.276   3.738  50.754  0.00  0.00    +0.000 C 
ATOM     26  H   UNL     1      19.067   2.603  51.971  0.00  0.00    +0.000 HD
BRANCH  24  27
ATOM     27  C   UNL     1      18.041   2.966  50.213  0.00  0.00    +0.000 C 
ATOM     28  C   UNL     1      17.255   1.764  49.676  0.00  0.00    +0.000 C 
BRANCH  27  29
ATOM     29  C   UNL     1      17.095   3.897  51.009  0.00  0.00    +0.000 C 
ATOM     30  N   UNL     1      16.352   4.762  50.260  0.00  0.00    +0.000 N 
ATOM     31  O   UNL     1      16.929   3.839  52.224  0.00  0.00    +0.000 OA
ATOM     32  H   UNL     1      16.485   4.810  49.286  0.00  0.00    +0.000 HD
ATOM     33  H   UNL     1      15.684   5.340  50.695  0.00  0.00    +0.000 HD
ENDBRANCH  27  29
ENDBRANCH  24  27
ENDBRANCH  23  24
ENDBRANCH  10  23
TORSDOF 7
ENDMDL
MODEL 5
REMARK VINA RESULT:    -8.280      3.472      6.187
REMARK INTER + INTRA:         -13.038
REMARK INTER:                 -11.307
REMARK INTRA:                  -1.730
REMARK UNBOUND:                -1.369
REMARK  Name = 
REMARK  10 active torsions:
REMARK  status: ('A' for Active; 'I' for Inactive)
REMARK    1  A    between atoms: C_1  and  O_2
REMARK    2  A    between atoms: O_2  and  C_3
REMARK    3  A    between atoms: C_9  and  N_10
REMARK    4  A    between atoms: N_10  and  C_11
REMARK    5  A    between atoms: C_21  and  C_22
REMARK    6  A    between atoms: C_22  and  N_23
REMARK    7  A    between atoms: N_23  and  C_24
REMARK    8  A    between atoms: N_23  and  C_25
REMARK    9  A    between atoms: C_25  and  C_26
REMARK   10  A    between atoms: C_25  and  C_27
REMARK                            x       y       z     vdW  Elec       q    Type
REMARK                         _______ _______ _______ _____ _____    ______ ____
ROOT
ATOM      1  C   UNL     1      25.382   1.124  52.163  0.00  0.00    +0.000 A 
ATOM      2  C   UNL     1      25.140   0.214  53.199  0.00  0.00    +0.000 A 
ATOM      3  C   UNL     1      23.869  -0.029  53.682  0.00  0.00    +0.000 A 
ATOM      4  N   UNL     1      23.738  -0.985  54.607  0.00  0.00    +0.000 NA
ATOM      5  C   UNL     1      22.505  -1.222  55.049  0.00  0.00    +0.000 A 
ATOM      6  N   UNL     1      21.408  -0.564  54.681  0.00  0.00    +0.000 NA
ATOM      7  C   UNL     1      21.557   0.417  53.765  0.00  0.00    +0.000 A 
ATOM      8  C   UNL     1      22.800   0.720  53.179  0.00  0.00    +0.000 A 
ATOM      9  C   UNL     1      23.046   1.701  52.176  0.00  0.00    +0.000 A 
ATOM     10  C   UNL     1      24.331   1.890  51.636  0.00  0.00    +0.000 A 
ENDROOT
BRANCH   1  12
ATOM     11  C   UNL     1      27.595   1.838  52.560  0.00  0.00    +0.000 C 
ATOM     12  O   UNL     1      26.635   1.321  51.640  0.00  0.00    +0.000 OA
ENDBRANCH   1  12
BRANCH   7  13
ATOM     13  N   UNL     1      20.406   1.158  53.402  0.00  0.00    +0.000 N 
ATOM     14  H   UNL     1      20.193   1.956  53.937  0.00  0.00    +0.000 HD
BRANCH  13  15
ATOM     15  C   UNL     1      19.538   0.836  52.329  0.00  0.00    +0.000 A 
ATOM     16  C   UNL     1      18.694  -0.282  52.384  0.00  0.00    +0.000 A 
ATOM     17  C   UNL     1      17.792  -0.566  51.355  0.00  0.00    +0.000 A 
ATOM     18  C   UNL     1      17.705   0.289  50.259  0.00  0.00    +0.000 A 
ATOM     19  C   UNL     1      18.516   1.421  50.200  0.00  0.00    +0.000 A 
ATOM     20 CL   UNL     1      18.382   2.479  48.845  0.00  0.00    +0.000 Cl
ATOM     21  C   UNL     1      19.417   1.696  51.230  0.00  0.00    +0.000 A 
ATOM     22  F   UNL     1      20.195   2.792  51.176  0.00  0.00    +0.000 F 
ENDBRANCH  13  15
ENDBRANCH   7  13
BRANCH  10  23
ATOM     23  C   UNL     1      24.543   2.839  50.460  0.00  0.00    +0.000 C 
BRANCH  23  24
ATOM     24  N   UNL     1      25.341   4.052  50.752  0.00  0.00    +0.000 N 
ATOM     25  C   UNL     1      26.453   4.177  49.796  0.00  0.00    +0.000 C 
ATOM     26  H   UNL     1      25.705   3.948  51.699  0.00  0.00    +0.000 HD
BRANCH  24  27
ATOM     27  C   UNL     1      24.504   5.303  50.701  0.00  0.00    +0.000 C 
ATOM     28  C   UNL     1      23.830   5.623  49.362  0.00  0.00    +0.000 C 
BRANCH  27  29
ATOM     29  C   UNL     1      23.455   5.341  51.838  0.00  0.00    +0.000 C 
ATOM     30  N   UNL     1      23.957   5.465  53.100  0.00  0.00    +0.000 N 
ATOM     31  O   UNL     1      22.240   5.345  51.657  0.00  0.00    +0.000 OA
ATOM     32  H   UNL     1      24.930   5.461  53.246  0.00  0.00    +0.000 HD
ATOM     33  H   UNL     1      23.345   5.559  53.866  0.00  0.00    +0.000 HD
ENDBRANCH  27  29
ENDBRANCH  24  27
ENDBRANCH  23  24
ENDBRANCH  10  23
TORSDOF 7
ENDMDL
MODEL 6
REMARK VINA RESULT:    -8.099      1.780      2.072
REMARK INTER + INTRA:         -12.783
REMARK INTER:                 -11.800
REMARK INTRA:                  -0.983
REMARK UNBOUND:                -1.369
REMARK  Name = 
REMARK  10 active torsions:
REMARK  status: ('A' for Active; 'I' for Inactive)
REMARK    1  A    between atoms: C_1  and  O_2
REMARK    2  A    between atoms: O_2  and  C_3
REMARK    3  A    between atoms: C_9  and  N_10
REMARK    4  A    between atoms: N_10  and  C_11
REMARK    5  A    between atoms: C_21  and  C_22
REMARK    6  A    between atoms: C_22  and  N_23
REMARK    7  A    between atoms: N_23  and  C_24
REMARK    8  A    between atoms: N_23  and  C_25
REMARK    9  A    between atoms: C_25  and  C_26
REMARK   10  A    between atoms: C_25  and  C_27
REMARK                            x       y       z     vdW  Elec       q    Type
REMARK                         _______ _______ _______ _____ _____    ______ ____
ROOT
ATOM      1  C   UNL     1      19.681  -0.076  52.458  0.00  0.00    +0.000 A 
ATOM      2  C   UNL     1      20.138  -0.810  53.559  0.00  0.00    +0.000 A 
ATOM      3  C   UNL     1      21.469  -0.832  53.926  0.00  0.00    +0.000 A 
ATOM      4  N   UNL     1      21.785  -1.489  55.046  0.00  0.00    +0.000 NA
ATOM      5  C   UNL     1      23.069  -1.485  55.399  0.00  0.00    +0.000 A 
ATOM      6  N   UNL     1      24.062  -0.922  54.711  0.00  0.00    +0.000 NA
ATOM      7  C   UNL     1      23.733  -0.285  53.567  0.00  0.00    +0.000 A 
ATOM      8  C   UNL     1      22.403  -0.169  53.122  0.00  0.00    +0.000 A 
ATOM      9  C   UNL     1      21.957   0.521  51.958  0.00  0.00    +0.000 A 
ATOM     10  C   UNL     1      20.591   0.602  51.633  0.00  0.00    +0.000 A 
ENDROOT
BRANCH   1  12
ATOM     11  C   UNL     1      17.515  -0.952  52.790  0.00  0.00    +0.000 C 
ATOM     12  O   UNL     1      18.351  -0.003  52.129  0.00  0.00    +0.000 OA
ENDBRANCH   1  12
BRANCH   7  13
ATOM     13  N   UNL     1      24.785   0.274  52.801  0.00  0.00    +0.000 N 
ATOM     14  H   UNL     1      24.546   0.714  51.954  0.00  0.00    +0.000 HD
BRANCH  13  15
ATOM     15  C   UNL     1      26.155   0.247  53.162  0.00  0.00    +0.000 A 
ATOM     16  C   UNL     1      26.758   1.330  53.817  0.00  0.00    +0.000 A 
ATOM     17  C   UNL     1      28.092   1.282  54.231  0.00  0.00    +0.000 A 
ATOM     18  C   UNL     1      28.841   0.128  54.013  0.00  0.00    +0.000 A 
ATOM     19  C   UNL     1      28.250  -0.970  53.388  0.00  0.00    +0.000 A 
ATOM     20 CL   UNL     1      29.184  -2.398  53.143  0.00  0.00    +0.000 Cl
ATOM     21  C   UNL     1      26.918  -0.913  52.975  0.00  0.00    +0.000 A 
ATOM     22  F   UNL     1      26.346  -1.975  52.378  0.00  0.00    +0.000 F 
ENDBRANCH  13  15
ENDBRANCH   7  13
BRANCH  10  23
ATOM     23  C   UNL     1      20.124   1.469  50.468  0.00  0.00    +0.000 C 
BRANCH  23  24
ATOM     24  N   UNL     1      21.198   2.128  49.689  0.00  0.00    +0.000 N 
ATOM     25  C   UNL     1      21.476   1.370  48.459  0.00  0.00    +0.000 C 
ATOM     26  H   UNL     1      22.027   2.148  50.282  0.00  0.00    +0.000 HD
BRANCH  24  27
ATOM     27  C   UNL     1      20.842   3.546  49.325  0.00  0.00    +0.000 C 
ATOM     28  C   UNL     1      19.706   4.195  50.125  0.00  0.00    +0.000 C 
BRANCH  27  29
ATOM     29  C   UNL     1      22.082   4.471  49.332  0.00  0.00    +0.000 C 
ATOM     30  N   UNL     1      22.453   4.951  50.553  0.00  0.00    +0.000 N 
ATOM     31  O   UNL     1      22.767   4.715  48.342  0.00  0.00    +0.000 OA
ATOM     32  H   UNL     1      21.905   4.756  51.347  0.00  0.00    +0.000 HD
ATOM     33  H   UNL     1      23.270   5.495  50.641  0.00  0.00    +0.000 HD
ENDBRANCH  27  29
ENDBRANCH  24  27
ENDBRANCH  23  24
ENDBRANCH  10  23
TORSDOF 7
ENDMDL
MODEL 7
REMARK VINA RESULT:    -8.045      2.673      5.044
REMARK INTER + INTRA:         -12.707
REMARK INTER:                 -11.528
REMARK INTRA:                  -1.179
REMARK UNBOUND:                -1.369
REMARK  Name = 
REMARK  10 active torsions:
REMARK  status: ('A' for Active; 'I' for Inactive)
REMARK    1  A    between atoms: C_1  and  O_2
REMARK    2  A    between atoms: O_2  and  C_3
REMARK    3  A    between atoms: C_9  and  N_10
REMARK    4  A    between atoms: N_10  and  C_11
REMARK    5  A    between atoms: C_21  and  C_22
REMARK    6  A    between atoms: C_22  and  N_23
REMARK    7  A    between atoms: N_23  and  C_24
REMARK    8  A    between atoms: N_23  and  C_25
REMARK    9  A    between atoms: C_25  and  C_26
REMARK   10  A    between atoms: C_25  and  C_27
REMARK                            x       y       z     vdW  Elec       q    Type
REMARK                         _______ _______ _______ _____ _____    ______ ____
ROOT
ATOM      1  C   UNL     1      22.214   2.512  49.386  0.00  0.00    +0.000 A 
ATOM      2  C   UNL     1      23.321   3.265  48.976  0.00  0.00    +0.000 A 
ATOM      3  C   UNL     1      24.524   3.233  49.654  0.00  0.00    +0.000 A 
ATOM      4  N   UNL     1      25.543   3.917  49.126  0.00  0.00    +0.000 NA
ATOM      5  C   UNL     1      26.702   3.860  49.780  0.00  0.00    +0.000 A 
ATOM      6  N   UNL     1      26.916   3.220  50.927  0.00  0.00    +0.000 NA
ATOM      7  C   UNL     1      25.871   2.555  51.465  0.00  0.00    +0.000 A 
ATOM      8  C   UNL     1      24.613   2.491  50.837  0.00  0.00    +0.000 A 
ATOM      9  C   UNL     1      23.470   1.779  51.302  0.00  0.00    +0.000 A 
ATOM     10  C   UNL     1      22.272   1.756  50.566  0.00  0.00    +0.000 A 
ENDROOT
BRANCH   1  12
ATOM     11  C   UNL     1      21.053   3.256  47.471  0.00  0.00    +0.000 C 
ATOM     12  O   UNL     1      21.039   2.495  48.678  0.00  0.00    +0.000 OA
ENDBRANCH   1  12
BRANCH   7  13
ATOM     13  N   UNL     1      26.072   1.913  52.711  0.00  0.00    +0.000 N 
ATOM     14  H   UNL     1      25.725   2.363  53.515  0.00  0.00    +0.000 HD
BRANCH  13  15
ATOM     15  C   UNL     1      26.734   0.673  52.888  0.00  0.00    +0.000 A 
ATOM     16  C   UNL     1      26.097  -0.542  52.594  0.00  0.00    +0.000 A 
ATOM     17  C   UNL     1      26.768  -1.763  52.707  0.00  0.00    +0.000 A 
ATOM     18  C   UNL     1      28.106  -1.782  53.095  0.00  0.00    +0.000 A 
ATOM     19  C   UNL     1      28.763  -0.582  53.364  0.00  0.00    +0.000 A 
ATOM     20 CL   UNL     1      30.424  -0.622  53.825  0.00  0.00    +0.000 Cl
ATOM     21  C   UNL     1      28.085   0.633  53.252  0.00  0.00    +0.000 A 
ATOM     22  F   UNL     1      28.722   1.791  53.505  0.00  0.00    +0.000 F 
ENDBRANCH  13  15
ENDBRANCH   7  13
BRANCH  10  23
ATOM     23  C   UNL     1      21.111   0.868  51.006  0.00  0.00    +0.000 C 
BRANCH  23  24
ATOM     24  N   UNL     1      20.517   1.196  52.322  0.00  0.00    +0.000 N 
ATOM     25  C   UNL     1      20.112   2.611  52.363  0.00  0.00    +0.000 C 
ATOM     26  H   UNL     1      21.233   1.018  53.025  0.00  0.00    +0.000 HD
BRANCH  24  27
ATOM     27  C   UNL     1      19.322   0.333  52.632  0.00  0.00    +0.000 C 
ATOM     28  C   UNL     1      18.519  -0.184  51.433  0.00  0.00    +0.000 C 
BRANCH  27  29
ATOM     29  C   UNL     1      19.691  -0.847  53.563  0.00  0.00    +0.000 C 
ATOM     30  N   UNL     1      18.655  -1.656  53.928  0.00  0.00    +0.000 N 
ATOM     31  O   UNL     1      20.837  -1.123  53.908  0.00  0.00    +0.000 OA
ATOM     32  H   UNL     1      17.736  -1.435  53.653  0.00  0.00    +0.000 HD
ATOM     33  H   UNL     1      18.827  -2.462  54.468  0.00  0.00    +0.000 HD
ENDBRANCH  27  29
ENDBRANCH  24  27
ENDBRANCH  23  24
ENDBRANCH  10  23
TORSDOF 7
ENDMDL
MODEL 8
REMARK VINA RESULT:    -8.042      3.084      5.882
REMARK INTER + INTRA:         -12.702
REMARK INTER:                 -10.989
REMARK INTRA:                  -1.714
REMARK UNBOUND:                -1.369
REMARK  Name = 
REMARK  10 active torsions:
REMARK  status: ('A' for Active; 'I' for Inactive)
REMARK    1  A    between atoms: C_1  and  O_2
REMARK    2  A    between atoms: O_2  and  C_3
REMARK    3  A    between atoms: C_9  and  N_10
REMARK    4  A    between atoms: N_10  and  C_11
REMARK    5  A    between atoms: C_21  and  C_22
REMARK    6  A    between atoms: C_22  and  N_23
REMARK    7  A    between atoms: N_23  and  C_24
REMARK    8  A    between atoms: N_23  and  C_25
REMARK    9  A    between atoms: C_25  and  C_26
REMARK   10  A    between atoms: C_25  and  C_27
REMARK                            x       y       z     vdW  Elec       q    Type
REMARK                         _______ _______ _______ _____ _____    ______ ____
ROOT
ATOM      1  C   UNL     1      22.859   0.549  53.228  0.00  0.00    +0.000 A 
ATOM      2  C   UNL     1      21.596   1.132  53.391  0.00  0.00    +0.000 A 
ATOM      3  C   UNL     1      21.112   2.091  52.523  0.00  0.00    +0.000 A 
ATOM      4  N   UNL     1      19.859   2.514  52.715  0.00  0.00    +0.000 NA
ATOM      5  C   UNL     1      19.399   3.424  51.859  0.00  0.00    +0.000 A 
ATOM      6  N   UNL     1      20.091   3.974  50.863  0.00  0.00    +0.000 NA
ATOM      7  C   UNL     1      21.364   3.558  50.696  0.00  0.00    +0.000 A 
ATOM      8  C   UNL     1      21.943   2.557  51.499  0.00  0.00    +0.000 A 
ATOM      9  C   UNL     1      23.258   2.023  51.369  0.00  0.00    +0.000 A 
ATOM     10  C   UNL     1      23.715   0.992  52.210  0.00  0.00    +0.000 A 
ENDROOT
BRANCH   1  12
ATOM     11  C   UNL     1      22.328  -1.020  54.908  0.00  0.00    +0.000 C 
ATOM     12  O   UNL     1      23.316  -0.448  54.052  0.00  0.00    +0.000 OA
ENDBRANCH   1  12
BRANCH   7  13
ATOM     13  N   UNL     1      22.127   4.171  49.672  0.00  0.00    +0.000 N 
ATOM     14  H   UNL     1      21.924   3.920  48.742  0.00  0.00    +0.000 HD
BRANCH  13  15
ATOM     15  C   UNL     1      23.160   5.117  49.885  0.00  0.00    +0.000 A 
ATOM     16  C   UNL     1      22.978   6.216  50.737  0.00  0.00    +0.000 A 
ATOM     17  C   UNL     1      24.015   7.116  50.998  0.00  0.00    +0.000 A 
ATOM     18  C   UNL     1      25.267   6.911  50.424  0.00  0.00    +0.000 A 
ATOM     19  C   UNL     1      25.476   5.807  49.597  0.00  0.00    +0.000 A 
ATOM     20 CL   UNL     1      27.036   5.558  48.910  0.00  0.00    +0.000 Cl
ATOM     21  C   UNL     1      24.433   4.915  49.338  0.00  0.00    +0.000 A 
ATOM     22  F   UNL     1      24.637   3.847  48.546  0.00  0.00    +0.000 F 
ENDBRANCH  13  15
ENDBRANCH   7  13
BRANCH  10  23
ATOM     23  C   UNL     1      25.069   0.333  51.958  0.00  0.00    +0.000 C 
BRANCH  23  24
ATOM     24  N   UNL     1      26.127   0.648  52.944  0.00  0.00    +0.000 N 
ATOM     25  C   UNL     1      26.723  -0.591  53.470  0.00  0.00    +0.000 C 
ATOM     26  H   UNL     1      25.686   1.171  53.699  0.00  0.00    +0.000 HD
BRANCH  24  27
ATOM     27  C   UNL     1      27.215   1.503  52.349  0.00  0.00    +0.000 C 
ATOM     28  C   UNL     1      26.778   2.546  51.313  0.00  0.00    +0.000 C 
BRANCH  27  29
ATOM     29  C   UNL     1      28.079   2.179  53.441  0.00  0.00    +0.000 C 
ATOM     30  N   UNL     1      29.387   1.795  53.480  0.00  0.00    +0.000 N 
ATOM     31  O   UNL     1      27.676   3.067  54.188  0.00  0.00    +0.000 OA
ATOM     32  H   UNL     1      29.709   1.083  52.882  0.00  0.00    +0.000 HD
ATOM     33  H   UNL     1      30.009   2.230  54.108  0.00  0.00    +0.000 HD
ENDBRANCH  27  29
ENDBRANCH  24  27
ENDBRANCH  23  24
ENDBRANCH  10  23
TORSDOF 7
ENDMDL
MODEL 9
REMARK VINA RESULT:    -7.994      1.682      2.684
REMARK INTER + INTRA:         -12.635
REMARK INTER:                 -11.233
REMARK INTRA:                  -1.403
REMARK UNBOUND:                -1.369
REMARK  Name = 
REMARK  10 active torsions:
REMARK  status: ('A' for Active; 'I' for Inactive)
REMARK    1  A    between atoms: C_1  and  O_2
REMARK    2  A    between atoms: O_2  and  C_3
REMARK    3  A    between atoms: C_9  and  N_10
REMARK    4  A    between atoms: N_10  and  C_11
REMARK    5  A    between atoms: C_21  and  C_22
REMARK    6  A    between atoms: C_22  and  N_23
REMARK    7  A    between atoms: N_23  and  C_24
REMARK    8  A    between atoms: N_23  and  C_25
REMARK    9  A    between atoms: C_25  and  C_26
REMARK   10  A    between atoms: C_25  and  C_27
REMARK                            x       y       z     vdW  Elec       q    Type
REMARK                         _______ _______ _______ _____ _____    ______ ____
ROOT
ATOM      1  C   UNL     1      20.946   2.641  52.355  0.00  0.00    +0.000 A 
ATOM      2  C   UNL     1      20.841   1.601  53.286  0.00  0.00    +0.000 A 
ATOM      3  C   UNL     1      21.894   0.752  53.562  0.00  0.00    +0.000 A 
ATOM      4  N   UNL     1      21.718  -0.147  54.535  0.00  0.00    +0.000 NA
ATOM      5  C   UNL     1      22.749  -0.946  54.804  0.00  0.00    +0.000 A 
ATOM      6  N   UNL     1      23.915  -0.951  54.162  0.00  0.00    +0.000 NA
ATOM      7  C   UNL     1      24.072  -0.056  53.163  0.00  0.00    +0.000 A 
ATOM      8  C   UNL     1      23.077   0.880  52.826  0.00  0.00    +0.000 A 
ATOM      9  C   UNL     1      23.169   1.889  51.824  0.00  0.00    +0.000 A 
ATOM     10  C   UNL     1      22.119   2.798  51.601  0.00  0.00    +0.000 A 
ENDROOT
BRANCH   1  12
ATOM     11  C   UNL     1      18.688   2.922  51.729  0.00  0.00    +0.000 C 
ATOM     12  O   UNL     1      19.921   3.523  52.124  0.00  0.00    +0.000 OA
ENDBRANCH   1  12
BRANCH   7  13
ATOM     13  N   UNL     1      25.289  -0.085  52.439  0.00  0.00    +0.000 N 
ATOM     14  H   UNL     1      25.273  -0.487  51.541  0.00  0.00    +0.000 HD
BRANCH  13  15
ATOM     15  C   UNL     1      26.526   0.419  52.910  0.00  0.00    +0.000 A 
ATOM     16  C   UNL     1      26.666   1.757  53.306  0.00  0.00    +0.000 A 
ATOM     17  C   UNL     1      27.867   2.241  53.831  0.00  0.00    +0.000 A 
ATOM     18  C   UNL     1      28.948   1.377  53.990  0.00  0.00    +0.000 A 
ATOM     19  C   UNL     1      28.819   0.036  53.629  0.00  0.00    +0.000 A 
ATOM     20 CL   UNL     1      30.160  -1.024  53.850  0.00  0.00    +0.000 Cl
ATOM     21  C   UNL     1      27.617  -0.438  53.102  0.00  0.00    +0.000 A 
ATOM     22  F   UNL     1      27.491  -1.734  52.760  0.00  0.00    +0.000 F 
ENDBRANCH  13  15
ENDBRANCH   7  13
BRANCH  10  23
ATOM     23  C   UNL     1      22.296   3.961  50.629  0.00  0.00    +0.000 C 
BRANCH  23  24
ATOM     24  N   UNL     1      21.200   4.149  49.650  0.00  0.00    +0.000 N 
ATOM     25  C   UNL     1      20.894   5.580  49.492  0.00  0.00    +0.000 C 
ATOM     26  H   UNL     1      20.386   3.656  50.015  0.00  0.00    +0.000 HD
BRANCH  24  27
ATOM     27  C   UNL     1      21.542   3.567  48.303  0.00  0.00    +0.000 C 
ATOM     28  C   UNL     1      22.716   2.581  48.260  0.00  0.00    +0.000 C 
BRANCH  27  29
ATOM     29  C   UNL     1      20.306   2.941  47.616  0.00  0.00    +0.000 C 
ATOM     30  N   UNL     1      19.699   1.929  48.301  0.00  0.00    +0.000 N 
ATOM     31  O   UNL     1      19.818   3.350  46.565  0.00  0.00    +0.000 OA
ATOM     32  H   UNL     1      20.090   1.601  49.142  0.00  0.00    +0.000 HD
ATOM     33  H   UNL     1      18.870   1.527  47.953  0.00  0.00    +0.000 HD
ENDBRANCH  27  29
ENDBRANCH  24  27
ENDBRANCH  23  24
ENDBRANCH  10  23
TORSDOF 7
ENDMDL
