REMARK  Name = 
REMARK  5 active torsions:
REMARK  status: ('A' for Active; 'I' for Inactive)
REMARK    1  A    between atoms: C_6  and  C_7
REMARK    2  A    between atoms: C_7  and  N_8
REMARK    3  A    between atoms: C_13  and  N_14
REMARK    4  A    between atoms: C_22  and  C_23
REMARK    5  A    between atoms: C_23  and  N_24
REMARK                            x       y       z     vdW  Elec       q    Type
REMARK                         _______ _______ _______ _____ _____    ______ ____
ROOT
ATOM      1  N   UNL     1       2.952  -5.433  -3.383  0.00  0.00    +0.000 N 
ATOM      2  C   UNL     1       3.074  -6.315  -4.442  0.00  0.00    +0.000 A 
ATOM      3  N   UNL     1       2.511  -6.044  -5.586  0.00  0.00    +0.000 NA
ATOM      4  C   UNL     1       2.626  -6.891  -6.647  0.00  0.00    +0.000 A 
ATOM      5  N   UNL     1       3.302  -7.990  -6.683  0.00  0.00    +0.000 NA
ATOM      6  N   UNL     1       3.900  -8.288  -5.523  0.00  0.00    +0.000 N 
ATOM      7  C   UNL     1       4.685  -9.386  -5.335  0.00  0.00    +0.000 A 
ATOM      8  C   UNL     1       5.109  -9.385  -4.032  0.00  0.00    +0.000 A 
ATOM      9  C   UNL     1       4.490  -8.274  -3.367  0.00  0.00    +0.000 A 
ATOM     10  C   UNL     1       3.813  -7.560  -4.362  0.00  0.00    +0.000 A 
ATOM     11  H   UNL     1       3.233  -5.776  -2.504  0.00  0.00    +0.000 HD
ENDROOT
BRANCH   1  17
ATOM     12  N   UNL     1       1.028  -0.199  -3.633  0.00  0.00    +0.000 N 
ATOM     13  N   UNL     1       1.076   0.091  -4.956  0.00  0.00    +0.000 NA
ATOM     14  C   UNL     1       1.605  -1.007  -5.499  0.00  0.00    +0.000 A 
ATOM     15  C   UNL     1       1.864  -2.017  -4.544  0.00  0.00    +0.000 A 
ATOM     16  C   UNL     1       2.399  -3.322  -4.577  0.00  0.00    +0.000 A 
ATOM     17  C   UNL     1       2.473  -4.099  -3.403  0.00  0.00    +0.000 A 
ATOM     18  C   UNL     1       2.007  -3.527  -2.210  0.00  0.00    +0.000 A 
ATOM     19  C   UNL     1       1.489  -2.220  -2.145  0.00  0.00    +0.000 A 
ATOM     20  C   UNL     1       1.439  -1.481  -3.334  0.00  0.00    +0.000 A 
BRANCH  12  21
ATOM     21  C   UNL     1       0.536   0.815  -2.705  0.00  0.00    +0.000 C 
BRANCH  21  27
ATOM     22  F   UNL     1       3.089   2.637   1.045  0.00  0.00    +0.000 F 
ATOM     23  C   UNL     1       2.884   2.579  -0.278  0.00  0.00    +0.000 A 
ATOM     24  C   UNL     1       3.675   3.345  -1.126  0.00  0.00    +0.000 A 
ATOM     25  C   UNL     1       3.449   3.292  -2.499  0.00  0.00    +0.000 A 
ATOM     26  C   UNL     1       2.439   2.471  -3.010  0.00  0.00    +0.000 A 
ATOM     27  C   UNL     1       1.643   1.686  -2.158  0.00  0.00    +0.000 A 
ATOM     28  C   UNL     1       1.876   1.757  -0.774  0.00  0.00    +0.000 A 
ENDBRANCH  21  27
ENDBRANCH  12  21
ENDBRANCH   1  17
BRANCH   9  29
ATOM     29  C   UNL     1       4.612  -8.062  -1.881  0.00  0.00    +0.000 C 
BRANCH  29  30
ATOM     30  N   UNL     1       3.428  -8.592  -1.178  0.00  0.00    +0.000 N 
ATOM     31  C   UNL     1       3.537  -8.389   0.288  0.00  0.00    +0.000 C 
ATOM     32  C   UNL     1       4.391  -9.421   1.074  0.00  0.00    +0.000 C 
ATOM     33  N   UNL     1       4.099 -10.827   0.756  0.00  0.00    +0.000 N 
ATOM     34  C   UNL     1       4.124 -11.009  -0.702  0.00  0.00    +0.000 C 
ATOM     35  C   UNL     1       3.168 -10.033  -1.422  0.00  0.00    +0.000 C 
ATOM     36  H   UNL     1       2.647  -8.062  -1.566  0.00  0.00    +0.000 HD
ATOM     37  H   UNL     1       3.177 -11.073   1.115  0.00  0.00    +0.000 HD
ATOM     38  H   UNL     1       4.801 -11.428   1.188  0.00  0.00    +0.000 HD
ENDBRANCH  29  30
ENDBRANCH   9  29
TORSDOF 5
