
     RDKit          3D

 39 41  0  0  0  0  0  0  0  0999 V2000
    4.4554    3.2591    0.1382 C   0  0  0  0  0  0  0  0  0  0  0  0
    4.7260    1.9323    0.8507 C   0  0  0  0  0  0  0  0  0  0  0  0
    6.1339    1.4205    0.5390 C   0  0  0  0  0  0  0  0  0  0  0  0
    3.7270    0.9321    0.4461 C   0  0  0  0  0  0  0  0  0  0  0  0
    2.9080    0.1123    0.1136 C   0  0  0  0  0  0  0  0  0  0  0  0
    1.9302   -0.8660   -0.2843 C   0  0  0  0  0  0  0  0  0  0  0  0
    2.3413   -2.1490   -0.6633 C   0  0  0  0  0  0  0  0  0  0  0  0
    1.3963   -3.1070   -1.0367 C   0  0  0  0  0  0  0  0  0  0  0  0
    0.0345   -2.7869   -1.0407 C   0  0  0  0  0  0  0  0  0  0  0  0
   -0.8783   -3.7301   -1.3876 N   0  0  0  0  0  0  0  0  0  0  0  0
   -2.2050   -3.4498   -1.3932 C   0  0  0  0  0  0  0  0  0  0  0  0
   -2.6408   -2.2095   -1.0577 N   0  0  0  0  0  0  0  0  0  0  0  0
   -1.7783   -1.2195   -0.6977 C   0  0  0  0  0  0  0  0  0  0  0  0
   -2.2949    0.0904   -0.4046 N   0  0  0  0  0  0  0  0  0  0  0  0
   -3.5888    0.3172    0.1813 C   0  0  0  0  0  0  0  0  0  0  0  0
   -4.2628    1.5210   -0.0772 C   0  0  0  0  0  0  0  0  0  0  0  0
   -5.5127    1.7698    0.4970 C   0  0  0  0  0  0  0  0  0  0  0  0
   -6.0964    0.8251    1.3452 C   0  0  0  0  0  0  0  0  0  0  0  0
   -7.3091    1.0777    1.8981 F   0  0  0  0  0  0  0  0  0  0  0  0
   -5.4247   -0.3708    1.6266 C   0  0  0  0  0  0  0  0  0  0  0  0
   -6.1394   -1.5560    2.7067 Cl  0  0  0  0  0  0  0  0  0  0  0  0
   -4.1732   -0.6216    1.0521 C   0  0  0  0  0  0  0  0  0  0  0  0
   -0.3922   -1.4888   -0.6770 C   0  0  0  0  0  0  0  0  0  0  0  0
    0.5683   -0.5349   -0.2860 C   0  0  0  0  0  0  0  0  0  0  0  0
    5.1915    4.0243    0.4650 H   0  0  0  0  0  0  0  0  0  0  0  0
    3.4378    3.6285    0.3902 H   0  0  0  0  0  0  0  0  0  0  0  0
    4.5305    3.1372   -0.9644 H   0  0  0  0  0  0  0  0  0  0  0  0
    4.6376    2.0907    1.9473 H   0  0  0  0  0  0  0  0  0  0  0  0
    6.8915    2.1632    0.8690 H   0  0  0  0  0  0  0  0  0  0  0  0
    6.3241    0.4689    1.0810 H   0  0  0  0  0  0  0  0  0  0  0  0
    6.2569    1.2436   -0.5518 H   0  0  0  0  0  0  0  0  0  0  0  0
    3.3926   -2.4108   -0.6627 H   0  0  0  0  0  0  0  0  0  0  0  0
    1.7243   -4.0999   -1.3188 H   0  0  0  0  0  0  0  0  0  0  0  0
   -2.9169   -4.2143   -1.6723 H   0  0  0  0  0  0  0  0  0  0  0  0
   -1.7641    0.9212   -0.7502 H   0  0  0  0  0  0  0  0  0  0  0  0
   -3.8226    2.2628   -0.7316 H   0  0  0  0  0  0  0  0  0  0  0  0
   -6.0282    2.6976    0.2844 H   0  0  0  0  0  0  0  0  0  0  0  0
   -3.6532   -1.5373    1.3016 H   0  0  0  0  0  0  0  0  0  0  0  0
    0.2741    0.4566    0.0323 H   0  0  0  0  0  0  0  0  0  0  0  0
  1  2  1  0
  2  3  1  0
  2  4  1  0
  4  5  3  0
  5  6  1  0
  6  7  2  0
  7  8  1  0
  8  9  2  0
  9 10  1  0
 10 11  2  0
 11 12  1  0
 12 13  2  0
 13 14  1  0
 14 15  1  0
 15 16  2  0
 16 17  1  0
 17 18  2  0
 18 19  1  0
 18 20  1  0
 20 21  1  0
 20 22  2  0
 13 23  1  0
 23 24  2  0
 24  6  1  0
 23  9  1  0
 22 15  1  0
  1 25  1  0
  1 26  1  0
  1 27  1  0
  2 28  1  0
  3 29  1  0
  3 30  1  0
  3 31  1  0
  7 32  1  0
  8 33  1  0
 11 34  1  0
 14 35  1  0
 16 36  1  0
 17 37  1  0
 22 38  1  0
 24 39  1  0
M  END
