REMARK  Name = 
REMARK  6 active torsions:
REMARK  status: ('A' for Active; 'I' for Inactive)
REMARK    1  A    between atoms: C_1  and  O_2
REMARK    2  A    between atoms: O_2  and  C_3
REMARK    3  A    between atoms: C_9  and  N_10
REMARK    4  A    between atoms: N_10  and  C_11
REMARK    5  A    between atoms: C_21  and  N_22
REMARK    6  A    between atoms: C_25  and  C_26
REMARK                            x       y       z     vdW  Elec       q    Type
REMARK                         _______ _______ _______ _____ _____    ______ ____
ROOT
ATOM      1  C   UNL     1       1.087  -2.366  -0.188  0.00  0.00    +0.000 A 
ATOM      2  C   UNL     1       0.171  -3.377  -0.522  0.00  0.00    +0.000 A 
ATOM      3  C   UNL     1       0.560  -4.562  -1.127  0.00  0.00    +0.000 A 
ATOM      4  N   UNL     1      -0.369  -5.498  -1.330  0.00  0.00    +0.000 NA
ATOM      5  C   UNL     1       0.052  -6.651  -1.860  0.00  0.00    +0.000 A 
ATOM      6  N   UNL     1       1.305  -6.941  -2.211  0.00  0.00    +0.000 NA
ATOM      7  C   UNL     1       2.225  -5.971  -2.056  0.00  0.00    +0.000 A 
ATOM      8  C   UNL     1       1.903  -4.731  -1.469  0.00  0.00    +0.000 A 
ATOM      9  C   UNL     1       2.817  -3.681  -1.199  0.00  0.00    +0.000 A 
ATOM     10  C   UNL     1       2.438  -2.496  -0.548  0.00  0.00    +0.000 A 
ENDROOT
BRANCH  10  11
ATOM     11  N   UNL     1       3.433  -1.564  -0.187  0.00  0.00    +0.000 N 
ATOM     12  C   UNL     1       3.398  -0.134  -0.152  0.00  0.00    +0.000 C 
ATOM     13  C   UNL     1       4.896  -0.193   0.181  0.00  0.00    +0.000 C 
ATOM     14  C   UNL     1       4.863  -1.600  -0.441  0.00  0.00    +0.000 C 
BRANCH  14  15
ATOM     15  C   UNL     1       5.655  -2.758   0.263  0.00  0.00    +0.000 C 
ATOM     16  N   UNL     1       5.203  -3.088   1.516  0.00  0.00    +0.000 N 
ATOM     17  O   UNL     1       6.575  -3.408  -0.236  0.00  0.00    +0.000 OA
ATOM     18  H   UNL     1       4.467  -2.577   1.924  0.00  0.00    +0.000 HD
ATOM     19  H   UNL     1       5.614  -3.836   2.006  0.00  0.00    +0.000 HD
ENDBRANCH  14  15
ENDBRANCH  10  11
BRANCH   1  21
ATOM     20  C   UNL     1      -0.308  -1.480   1.496  0.00  0.00    +0.000 C 
ATOM     21  O   UNL     1       0.698  -1.245   0.509  0.00  0.00    +0.000 OA
ENDBRANCH   1  21
BRANCH   7  22
ATOM     22  N   UNL     1       3.581  -6.270  -2.385  0.00  0.00    +0.000 N 
ATOM     23  H   UNL     1       4.295  -5.733  -1.971  0.00  0.00    +0.000 HD
BRANCH  22  24
ATOM     24  C   UNL     1       3.948  -7.310  -3.284  0.00  0.00    +0.000 A 
ATOM     25  C   UNL     1       5.130  -8.026  -3.027  0.00  0.00    +0.000 A 
ATOM     26  C   UNL     1       5.582  -8.990  -3.925  0.00  0.00    +0.000 A 
ATOM     27  C   UNL     1       4.878  -9.240  -5.105  0.00  0.00    +0.000 A 
ATOM     28  C   UNL     1       3.734  -8.502  -5.394  0.00  0.00    +0.000 A 
ATOM     29 CL   UNL     1       2.896  -8.784  -6.876  0.00  0.00    +0.000 Cl
ATOM     30  C   UNL     1       3.287  -7.530  -4.506  0.00  0.00    +0.000 A 
ATOM     31  F   UNL     1       2.253  -6.747  -4.854  0.00  0.00    +0.000 F 
ENDBRANCH  22  24
ENDBRANCH   7  22
TORSDOF 5
