
     RDKit          3D

 36 38  0  0  0  0  0  0  0  0999 V2000
   -5.6627   -0.6443   -1.2354 C   0  0  0  0  0  0  0  0  0  0  0  0
   -4.7027    0.2855   -0.7438 O   0  0  0  0  0  0  0  0  0  0  0  0
   -3.3605   -0.0245   -0.4716 C   0  0  0  0  0  0  0  0  0  0  0  0
   -2.8380   -1.3155   -0.6713 C   0  0  0  0  0  0  0  0  0  0  0  0
   -1.4977   -1.5892   -0.3874 C   0  0  0  0  0  0  0  0  0  0  0  0
   -1.0057   -2.8363   -0.6035 N   0  0  0  0  0  0  0  0  0  0  0  0
    0.2919   -3.1309   -0.3435 C   0  0  0  0  0  0  0  0  0  0  0  0
    1.1210   -2.1770    0.1491 N   0  0  0  0  0  0  0  0  0  0  0  0
    0.6908   -0.9073    0.3855 C   0  0  0  0  0  0  0  0  0  0  0  0
    1.6007    0.0462    0.9611 N   0  0  0  0  0  0  0  0  0  0  0  0
    3.0159    0.0438    0.7037 C   0  0  0  0  0  0  0  0  0  0  0  0
    3.5381   -0.4294   -0.5148 C   0  0  0  0  0  0  0  0  0  0  0  0
    4.9161   -0.4019   -0.7503 C   0  0  0  0  0  0  0  0  0  0  0  0
    5.7841    0.1074    0.2203 C   0  0  0  0  0  0  0  0  0  0  0  0
    7.5123    0.1424   -0.0781 Cl  0  0  0  0  0  0  0  0  0  0  0  0
    5.2717    0.5969    1.4256 C   0  0  0  0  0  0  0  0  0  0  0  0
    3.8941    0.5713    1.6638 C   0  0  0  0  0  0  0  0  0  0  0  0
   -0.6553   -0.5747    0.1145 C   0  0  0  0  0  0  0  0  0  0  0  0
   -1.1750    0.7200    0.2969 C   0  0  0  0  0  0  0  0  0  0  0  0
   -2.5266    0.9963    0.0095 C   0  0  0  0  0  0  0  0  0  0  0  0
   -3.0794    2.2752    0.1864 O   0  0  0  0  0  0  0  0  0  0  0  0
   -2.3623    3.4079    0.6666 C   0  0  0  0  0  0  0  0  0  0  0  0
   -5.3434   -1.0361   -2.2242 H   0  0  0  0  0  0  0  0  0  0  0  0
   -5.7891   -1.4798   -0.5148 H   0  0  0  0  0  0  0  0  0  0  0  0
   -6.6375   -0.1290   -1.3558 H   0  0  0  0  0  0  0  0  0  0  0  0
   -3.4641   -2.1126   -1.0503 H   0  0  0  0  0  0  0  0  0  0  0  0
    0.6649   -4.1299   -0.5222 H   0  0  0  0  0  0  0  0  0  0  0  0
    1.2412    0.6886    1.7024 H   0  0  0  0  0  0  0  0  0  0  0  0
    2.8826   -0.8017   -1.2910 H   0  0  0  0  0  0  0  0  0  0  0  0
    5.3071   -0.7702   -1.6903 H   0  0  0  0  0  0  0  0  0  0  0  0
    5.9388    0.9988    2.1776 H   0  0  0  0  0  0  0  0  0  0  0  0
    3.5107    0.9551    2.6009 H   0  0  0  0  0  0  0  0  0  0  0  0
   -0.5349    1.5167    0.6438 H   0  0  0  0  0  0  0  0  0  0  0  0
   -3.0479    4.2788    0.7103 H   0  0  0  0  0  0  0  0  0  0  0  0
   -1.9744    3.2098    1.6881 H   0  0  0  0  0  0  0  0  0  0  0  0
   -1.5249    3.6498   -0.0216 H   0  0  0  0  0  0  0  0  0  0  0  0
  1  2  1  0
  2  3  1  0
  3  4  2  0
  4  5  1  0
  5  6  2  0
  6  7  1  0
  7  8  2  0
  8  9  1  0
  9 10  1  0
 10 11  1  0
 11 12  2  0
 12 13  1  0
 13 14  2  0
 14 15  1  0
 14 16  1  0
 16 17  2  0
  9 18  2  0
 18 19  1  0
 19 20  2  0
 20 21  1  0
 21 22  1  0
 20  3  1  0
 18  5  1  0
 17 11  1  0
  1 23  1  0
  1 24  1  0
  1 25  1  0
  4 26  1  0
  7 27  1  0
 10 28  1  0
 12 29  1  0
 13 30  1  0
 16 31  1  0
 17 32  1  0
 19 33  1  0
 22 34  1  0
 22 35  1  0
 22 36  1  0
M  END
