MODEL 1
REMARK VINA RESULT:    -9.452      0.000      0.000
REMARK INTER + INTRA:         -13.698
REMARK INTER:                 -13.873
REMARK INTRA:                   0.175
REMARK UNBOUND:                 0.175
REMARK  Name = 
REMARK  10 active torsions:
REMARK  status: ('A' for Active; 'I' for Inactive)
REMARK    1  A    between atoms: C_2  and  C_3
REMARK    2  A    between atoms: N_5  and  C_6
REMARK    3  A    between atoms: C_10  and  N_11
REMARK    4  A    between atoms: N_15  and  C_16
REMARK    5  A    between atoms: C_19  and  C_20
REMARK    6  A    between atoms: C_21  and  C_22
REMARK    7  A    between atoms: C_24  and  O_25
REMARK    8  A    between atoms: O_25  and  C_26
REMARK    9  A    between atoms: C_28  and  O_29
REMARK   10  A    between atoms: O_29  and  C_30
REMARK                            x       y       z     vdW  Elec       q    Type
REMARK                         _______ _______ _______ _____ _____    ______ ____
ROOT
ATOM      1  N   UNL     1      20.530  -0.675  54.012  0.00  0.00    +0.000 N 
ATOM      2  C   UNL     1      21.800  -0.280  53.507  0.00  0.00    +0.000 A 
ATOM      3  N   UNL     1      21.835   0.492  52.395  0.00  0.00    +0.000 NA
ATOM      4  C   UNL     1      23.012   0.958  51.974  0.00  0.00    +0.000 A 
ATOM      5  N   UNL     1      23.014   1.740  50.823  0.00  0.00    +0.000 N 
ATOM      6  N   UNL     1      24.173   0.670  52.583  0.00  0.00    +0.000 NA
ATOM      7  C   UNL     1      24.123  -0.113  53.673  0.00  0.00    +0.000 A 
ATOM      8  C   UNL     1      22.957  -0.608  54.199  0.00  0.00    +0.000 A 
ATOM      9 CL   UNL     1      22.981  -1.623  55.582  0.00  0.00    +0.000 Cl
ATOM     10  H   UNL     1      20.463  -0.924  54.962  0.00  0.00    +0.000 HD
ATOM     11  H   UNL     1      22.328   1.530  50.150  0.00  0.00    +0.000 HD
ENDROOT
BRANCH   1  16
ATOM     12  C   UNL     1      17.136  -1.629  52.761  0.00  0.00    +0.000 A 
ATOM     13  C   UNL     1      17.021  -0.764  51.674  0.00  0.00    +0.000 A 
ATOM     14  C   UNL     1      18.071   0.103  51.352  0.00  0.00    +0.000 A 
ATOM     15  C   UNL     1      19.233   0.120  52.116  0.00  0.00    +0.000 A 
ATOM     16  C   UNL     1      19.359  -0.727  53.221  0.00  0.00    +0.000 A 
ATOM     17  C   UNL     1      18.272  -1.554  53.564  0.00  0.00    +0.000 A 
BRANCH  12  20
ATOM     18  C   UNL     1      16.421  -3.961  53.253  0.00  0.00    +0.000 C 
ATOM     19  O   UNL     1      17.499  -4.528  53.139  0.00  0.00    +0.000 OA
ATOM     20  N   UNL     1      16.172  -2.612  53.093  0.00  0.00    +0.000 N 
ATOM     21  H   UNL     1      15.245  -2.307  53.220  0.00  0.00    +0.000 HD
BRANCH  18  23
ATOM     22  C   UNL     1      15.171  -5.408  54.804  0.00  0.00    +0.000 C 
ATOM     23  C   UNL     1      15.198  -4.721  53.653  0.00  0.00    +0.000 C 
ENDBRANCH  18  23
ENDBRANCH  12  20
ENDBRANCH   1  16
BRANCH   5  24
ATOM     24  C   UNL     1      23.888   2.791  50.521  0.00  0.00    +0.000 A 
ATOM     25  C   UNL     1      23.393   4.091  50.410  0.00  0.00    +0.000 A 
ATOM     26  C   UNL     1      24.218   5.128  49.965  0.00  0.00    +0.000 A 
ATOM     27  C   UNL     1      25.563   4.893  49.650  0.00  0.00    +0.000 A 
ATOM     28  C   UNL     1      26.068   3.599  49.790  0.00  0.00    +0.000 A 
ATOM     29  C   UNL     1      25.238   2.565  50.223  0.00  0.00    +0.000 A 
BRANCH  27  30
ATOM     30  C   UNL     1      26.366   5.994  49.106  0.00  0.00    +0.000 C 
ATOM     31  C   UNL     1      27.504   5.834  48.414  0.00  0.00    +0.000 C 
BRANCH  31  32
ATOM     32  C   UNL     1      28.298   6.949  47.879  0.00  0.00    +0.000 A 
ATOM     33  C   UNL     1      27.654   7.926  47.107  0.00  0.00    +0.000 A 
ATOM     34  C   UNL     1      28.364   9.022  46.615  0.00  0.00    +0.000 A 
ATOM     35  C   UNL     1      29.728   9.147  46.899  0.00  0.00    +0.000 A 
ATOM     36  C   UNL     1      30.378   8.198  47.686  0.00  0.00    +0.000 A 
ATOM     37  C   UNL     1      29.659   7.102  48.167  0.00  0.00    +0.000 A 
BRANCH  34  38
ATOM     38  O   UNL     1      27.846  10.040  45.860  0.00  0.00    +0.000 OA
ATOM     39  C   UNL     1      26.820   9.697  44.938  0.00  0.00    +0.000 C 
ENDBRANCH  34  38
BRANCH  36  40
ATOM     40  O   UNL     1      31.689   8.231  48.073  0.00  0.00    +0.000 OA
ATOM     41  C   UNL     1      31.982   7.783  49.389  0.00  0.00    +0.000 C 
ENDBRANCH  36  40
ENDBRANCH  31  32
ENDBRANCH  27  30
ENDBRANCH   5  24
TORSDOF 8
ENDMDL
MODEL 2
REMARK VINA RESULT:    -9.450      3.552     13.190
REMARK INTER + INTRA:         -13.694
REMARK INTER:                 -13.638
REMARK INTRA:                  -0.056
REMARK UNBOUND:                 0.175
REMARK  Name = 
REMARK  10 active torsions:
REMARK  status: ('A' for Active; 'I' for Inactive)
REMARK    1  A    between atoms: C_2  and  C_3
REMARK    2  A    between atoms: N_5  and  C_6
REMARK    3  A    between atoms: C_10  and  N_11
REMARK    4  A    between atoms: N_15  and  C_16
REMARK    5  A    between atoms: C_19  and  C_20
REMARK    6  A    between atoms: C_21  and  C_22
REMARK    7  A    between atoms: C_24  and  O_25
REMARK    8  A    between atoms: O_25  and  C_26
REMARK    9  A    between atoms: C_28  and  O_29
REMARK   10  A    between atoms: O_29  and  C_30
REMARK                            x       y       z     vdW  Elec       q    Type
REMARK                         _______ _______ _______ _____ _____    ______ ____
ROOT
ATOM      1  N   UNL     1      26.220   1.961  51.001  0.00  0.00    +0.000 N 
ATOM      2  C   UNL     1      25.273   1.353  51.872  0.00  0.00    +0.000 A 
ATOM      3  N   UNL     1      23.988   1.775  51.816  0.00  0.00    +0.000 NA
ATOM      4  C   UNL     1      23.071   1.142  52.550  0.00  0.00    +0.000 A 
ATOM      5  N   UNL     1      21.763   1.607  52.477  0.00  0.00    +0.000 N 
ATOM      6  N   UNL     1      23.368   0.122  53.370  0.00  0.00    +0.000 NA
ATOM      7  C   UNL     1      24.651  -0.272  53.429  0.00  0.00    +0.000 A 
ATOM      8  C   UNL     1      25.654   0.296  52.686  0.00  0.00    +0.000 A 
ATOM      9 CL   UNL     1      27.274  -0.250  52.837  0.00  0.00    +0.000 Cl
ATOM     10  H   UNL     1      27.038   1.460  50.780  0.00  0.00    +0.000 HD
ATOM     11  H   UNL     1      21.649   2.572  52.320  0.00  0.00    +0.000 HD
ENDROOT
BRANCH   1  16
ATOM     12  C   UNL     1      24.864   5.380  50.316  0.00  0.00    +0.000 A 
ATOM     13  C   UNL     1      25.762   5.810  49.340  0.00  0.00    +0.000 A 
ATOM     14  C   UNL     1      26.784   4.961  48.901  0.00  0.00    +0.000 A 
ATOM     15  C   UNL     1      26.924   3.686  49.441  0.00  0.00    +0.000 A 
ATOM     16  C   UNL     1      26.045   3.244  50.434  0.00  0.00    +0.000 A 
ATOM     17  C   UNL     1      25.056   4.131  50.902  0.00  0.00    +0.000 A 
BRANCH  12  20
ATOM     18  C   UNL     1      22.491   6.108  50.147  0.00  0.00    +0.000 C 
ATOM     19  O   UNL     1      22.150   5.451  49.173  0.00  0.00    +0.000 OA
ATOM     20  N   UNL     1      23.739   6.128  50.738  0.00  0.00    +0.000 N 
ATOM     21  H   UNL     1      23.857   6.712  51.522  0.00  0.00    +0.000 HD
BRANCH  18  23
ATOM     22  C   UNL     1      20.974   8.043  50.260  0.00  0.00    +0.000 C 
ATOM     23  C   UNL     1      21.507   6.972  50.866  0.00  0.00    +0.000 C 
ENDBRANCH  18  23
ENDBRANCH  12  20
ENDBRANCH   1  16
BRANCH   5  24
ATOM     24  C   UNL     1      20.592   0.850  52.604  0.00  0.00    +0.000 A 
ATOM     25  C   UNL     1      20.480  -0.082  53.637  0.00  0.00    +0.000 A 
ATOM     26  C   UNL     1      19.384  -0.950  53.692  0.00  0.00    +0.000 A 
ATOM     27  C   UNL     1      18.364  -0.883  52.734  0.00  0.00    +0.000 A 
ATOM     28  C   UNL     1      18.460   0.069  51.719  0.00  0.00    +0.000 A 
ATOM     29  C   UNL     1      19.560   0.924  51.659  0.00  0.00    +0.000 A 
BRANCH  27  30
ATOM     30  C   UNL     1      17.280  -1.870  52.785  0.00  0.00    +0.000 C 
ATOM     31  C   UNL     1      17.391  -3.094  53.325  0.00  0.00    +0.000 C 
BRANCH  31  32
ATOM     32  C   UNL     1      16.294  -4.071  53.365  0.00  0.00    +0.000 A 
ATOM     33  C   UNL     1      15.228  -3.926  52.467  0.00  0.00    +0.000 A 
ATOM     34  C   UNL     1      14.188  -4.856  52.445  0.00  0.00    +0.000 A 
ATOM     35  C   UNL     1      14.214  -5.943  53.324  0.00  0.00    +0.000 A 
ATOM     36  C   UNL     1      15.280  -6.117  54.205  0.00  0.00    +0.000 A 
ATOM     37  C   UNL     1      16.311  -5.177  54.223  0.00  0.00    +0.000 A 
BRANCH  34  38
ATOM     38  O   UNL     1      13.101  -4.824  51.613  0.00  0.00    +0.000 OA
ATOM     39  C   UNL     1      13.109  -3.843  50.583  0.00  0.00    +0.000 C 
ENDBRANCH  34  38
BRANCH  36  40
ATOM     40  O   UNL     1      15.445  -7.158  55.076  0.00  0.00    +0.000 OA
ATOM     41  C   UNL     1      15.100  -6.920  56.434  0.00  0.00    +0.000 C 
ENDBRANCH  36  40
ENDBRANCH  31  32
ENDBRANCH  27  30
ENDBRANCH   5  24
TORSDOF 8
ENDMDL
MODEL 3
REMARK VINA RESULT:    -9.431      2.685      4.250
REMARK INTER + INTRA:         -13.666
REMARK INTER:                 -13.412
REMARK INTRA:                  -0.254
REMARK UNBOUND:                 0.175
REMARK  Name = 
REMARK  10 active torsions:
REMARK  status: ('A' for Active; 'I' for Inactive)
REMARK    1  A    between atoms: C_2  and  C_3
REMARK    2  A    between atoms: N_5  and  C_6
REMARK    3  A    between atoms: C_10  and  N_11
REMARK    4  A    between atoms: N_15  and  C_16
REMARK    5  A    between atoms: C_19  and  C_20
REMARK    6  A    between atoms: C_21  and  C_22
REMARK    7  A    between atoms: C_24  and  O_25
REMARK    8  A    between atoms: O_25  and  C_26
REMARK    9  A    between atoms: C_28  and  O_29
REMARK   10  A    between atoms: O_29  and  C_30
REMARK                            x       y       z     vdW  Elec       q    Type
REMARK                         _______ _______ _______ _____ _____    ______ ____
ROOT
ATOM      1  N   UNL     1      16.599   0.622  51.419  0.00  0.00    +0.000 N 
ATOM      2  C   UNL     1      17.474   1.743  51.380  0.00  0.00    +0.000 A 
ATOM      3  N   UNL     1      18.793   1.534  51.602  0.00  0.00    +0.000 NA
ATOM      4  C   UNL     1      19.638   2.557  51.463  0.00  0.00    +0.000 A 
ATOM      5  N   UNL     1      20.984   2.312  51.707  0.00  0.00    +0.000 N 
ATOM      6  N   UNL     1      19.237   3.798  51.143  0.00  0.00    +0.000 NA
ATOM      7  C   UNL     1      17.922   3.993  50.945  0.00  0.00    +0.000 A 
ATOM      8  C   UNL     1      16.986   2.995  51.032  0.00  0.00    +0.000 A 
ATOM      9 CL   UNL     1      15.321   3.331  50.789  0.00  0.00    +0.000 Cl
ATOM     10  H   UNL     1      15.741   0.683  50.940  0.00  0.00    +0.000 HD
ATOM     11  H   UNL     1      21.189   1.628  52.384  0.00  0.00    +0.000 HD
ENDROOT
BRANCH   1  16
ATOM     12  C   UNL     1      18.341  -1.882  53.585  0.00  0.00    +0.000 A 
ATOM     13  C   UNL     1      17.435  -2.940  53.516  0.00  0.00    +0.000 A 
ATOM     14  C   UNL     1      16.278  -2.825  52.739  0.00  0.00    +0.000 A 
ATOM     15  C   UNL     1      16.011  -1.654  52.037  0.00  0.00    +0.000 A 
ATOM     16  C   UNL     1      16.898  -0.576  52.108  0.00  0.00    +0.000 A 
ATOM     17  C   UNL     1      18.030  -0.688  52.938  0.00  0.00    +0.000 A 
BRANCH  12  20
ATOM     18  C   UNL     1      20.729  -1.262  53.903  0.00  0.00    +0.000 C 
ATOM     19  O   UNL     1      20.860  -0.487  52.966  0.00  0.00    +0.000 OA
ATOM     20  N   UNL     1      19.585  -1.951  54.256  0.00  0.00    +0.000 N 
ATOM     21  H   UNL     1      19.639  -2.541  55.043  0.00  0.00    +0.000 HD
BRANCH  18  23
ATOM     22  C   UNL     1      23.085  -1.039  54.583  0.00  0.00    +0.000 C 
ATOM     23  C   UNL     1      21.859  -1.515  54.847  0.00  0.00    +0.000 C 
ENDBRANCH  18  23
ENDBRANCH  12  20
ENDBRANCH   1  16
BRANCH   5  24
ATOM     24  C   UNL     1      22.079   2.933  51.094  0.00  0.00    +0.000 A 
ATOM     25  C   UNL     1      22.511   2.492  49.842  0.00  0.00    +0.000 A 
ATOM     26  C   UNL     1      23.689   2.997  49.281  0.00  0.00    +0.000 A 
ATOM     27  C   UNL     1      24.441   3.975  49.946  0.00  0.00    +0.000 A 
ATOM     28  C   UNL     1      23.992   4.439  51.184  0.00  0.00    +0.000 A 
ATOM     29  C   UNL     1      22.825   3.923  51.745  0.00  0.00    +0.000 A 
BRANCH  27  30
ATOM     30  C   UNL     1      25.712   4.411  49.358  0.00  0.00    +0.000 C 
ATOM     31  C   UNL     1      25.991   5.675  49.003  0.00  0.00    +0.000 C 
BRANCH  31  32
ATOM     32  C   UNL     1      27.269   6.094  48.411  0.00  0.00    +0.000 A 
ATOM     33  C   UNL     1      27.323   7.305  47.709  0.00  0.00    +0.000 A 
ATOM     34  C   UNL     1      28.527   7.757  47.167  0.00  0.00    +0.000 A 
ATOM     35  C   UNL     1      29.688   6.997  47.332  0.00  0.00    +0.000 A 
ATOM     36  C   UNL     1      29.658   5.803  48.051  0.00  0.00    +0.000 A 
ATOM     37  C   UNL     1      28.447   5.357  48.582  0.00  0.00    +0.000 A 
BRANCH  34  38
ATOM     38  O   UNL     1      28.705   8.922  46.470  0.00  0.00    +0.000 OA
ATOM     39  C   UNL     1      27.697   9.915  46.610  0.00  0.00    +0.000 C 
ENDBRANCH  34  38
BRANCH  36  40
ATOM     40  O   UNL     1      30.729   4.996  48.321  0.00  0.00    +0.000 OA
ATOM     41  C   UNL     1      31.622   4.734  47.248  0.00  0.00    +0.000 C 
ENDBRANCH  36  40
ENDBRANCH  31  32
ENDBRANCH  27  30
ENDBRANCH   5  24
TORSDOF 8
ENDMDL
MODEL 4
REMARK VINA RESULT:    -9.390      6.183      8.978
REMARK INTER + INTRA:         -13.607
REMARK INTER:                 -12.522
REMARK INTRA:                  -1.085
REMARK UNBOUND:                 0.175
REMARK  Name = 
REMARK  10 active torsions:
REMARK  status: ('A' for Active; 'I' for Inactive)
REMARK    1  A    between atoms: C_2  and  C_3
REMARK    2  A    between atoms: N_5  and  C_6
REMARK    3  A    between atoms: C_10  and  N_11
REMARK    4  A    between atoms: N_15  and  C_16
REMARK    5  A    between atoms: C_19  and  C_20
REMARK    6  A    between atoms: C_21  and  C_22
REMARK    7  A    between atoms: C_24  and  O_25
REMARK    8  A    between atoms: O_25  and  C_26
REMARK    9  A    between atoms: C_28  and  O_29
REMARK   10  A    between atoms: O_29  and  C_30
REMARK                            x       y       z     vdW  Elec       q    Type
REMARK                         _______ _______ _______ _____ _____    ______ ____
ROOT
ATOM      1  N   UNL     1      12.963   0.455  52.850  0.00  0.00    +0.000 N 
ATOM      2  C   UNL     1      14.114  -0.029  52.169  0.00  0.00    +0.000 A 
ATOM      3  N   UNL     1      15.203   0.773  52.101  0.00  0.00    +0.000 NA
ATOM      4  C   UNL     1      16.323   0.291  51.559  0.00  0.00    +0.000 A 
ATOM      5  N   UNL     1      17.419   1.144  51.495  0.00  0.00    +0.000 N 
ATOM      6  N   UNL     1      16.414  -0.946  51.046  0.00  0.00    +0.000 NA
ATOM      7  C   UNL     1      15.319  -1.722  51.104  0.00  0.00    +0.000 A 
ATOM      8  C   UNL     1      14.136  -1.325  51.673  0.00  0.00    +0.000 A 
ATOM      9 CL   UNL     1      12.775  -2.369  51.684  0.00  0.00    +0.000 Cl
ATOM     10  H   UNL     1      12.320  -0.202  53.203  0.00  0.00    +0.000 HD
ATOM     11  H   UNL     1      17.223   2.102  51.386  0.00  0.00    +0.000 HD
ENDROOT
BRANCH   1  16
ATOM     12  C   UNL     1      12.216   4.056  52.168  0.00  0.00    +0.000 A 
ATOM     13  C   UNL     1      12.102   4.536  53.472  0.00  0.00    +0.000 A 
ATOM     14  C   UNL     1      12.298   3.675  54.557  0.00  0.00    +0.000 A 
ATOM     15  C   UNL     1      12.596   2.332  54.349  0.00  0.00    +0.000 A 
ATOM     16  C   UNL     1      12.696   1.829  53.049  0.00  0.00    +0.000 A 
ATOM     17  C   UNL     1      12.442   2.696  51.969  0.00  0.00    +0.000 A 
BRANCH  12  20
ATOM     18  C   UNL     1      13.186   5.147  50.153  0.00  0.00    +0.000 C 
ATOM     19  O   UNL     1      14.333   4.731  50.234  0.00  0.00    +0.000 OA
ATOM     20  N   UNL     1      12.142   4.876  51.016  0.00  0.00    +0.000 N 
ATOM     21  H   UNL     1      11.271   5.288  50.813  0.00  0.00    +0.000 HD
BRANCH  18  23
ATOM     22  C   UNL     1      13.664   6.413  48.097  0.00  0.00    +0.000 C 
ATOM     23  C   UNL     1      12.766   6.006  49.005  0.00  0.00    +0.000 C 
ENDBRANCH  18  23
ENDBRANCH  12  20
ENDBRANCH   1  16
BRANCH   5  24
ATOM     24  C   UNL     1      18.771   0.786  51.570  0.00  0.00    +0.000 A 
ATOM     25  C   UNL     1      19.294   0.312  52.775  0.00  0.00    +0.000 A 
ATOM     26  C   UNL     1      20.669   0.091  52.911  0.00  0.00    +0.000 A 
ATOM     27  C   UNL     1      21.543   0.309  51.838  0.00  0.00    +0.000 A 
ATOM     28  C   UNL     1      21.016   0.752  50.624  0.00  0.00    +0.000 A 
ATOM     29  C   UNL     1      19.647   0.984  50.496  0.00  0.00    +0.000 A 
BRANCH  27  30
ATOM     30  C   UNL     1      22.984   0.144  52.055  0.00  0.00    +0.000 C 
ATOM     31  C   UNL     1      23.658   0.653  53.098  0.00  0.00    +0.000 C 
BRANCH  31  32
ATOM     32  C   UNL     1      25.104   0.481  53.297  0.00  0.00    +0.000 A 
ATOM     33  C   UNL     1      25.868   1.589  53.691  0.00  0.00    +0.000 A 
ATOM     34  C   UNL     1      27.236   1.458  53.930  0.00  0.00    +0.000 A 
ATOM     35  C   UNL     1      27.848   0.209  53.780  0.00  0.00    +0.000 A 
ATOM     36  C   UNL     1      27.098  -0.908  53.415  0.00  0.00    +0.000 A 
ATOM     37  C   UNL     1      25.732  -0.764  53.172  0.00  0.00    +0.000 A 
BRANCH  34  38
ATOM     38  O   UNL     1      28.082   2.460  54.324  0.00  0.00    +0.000 OA
ATOM     39  C   UNL     1      29.325   2.556  53.641  0.00  0.00    +0.000 C 
ENDBRANCH  34  38
BRANCH  36  40
ATOM     40  O   UNL     1      27.567  -2.186  53.282  0.00  0.00    +0.000 OA
ATOM     41  C   UNL     1      28.966  -2.339  53.082  0.00  0.00    +0.000 C 
ENDBRANCH  36  40
ENDBRANCH  31  32
ENDBRANCH  27  30
ENDBRANCH   5  24
TORSDOF 8
ENDMDL
MODEL 5
REMARK VINA RESULT:    -9.361      3.543     13.334
REMARK INTER + INTRA:         -13.564
REMARK INTER:                 -13.562
REMARK INTRA:                  -0.003
REMARK UNBOUND:                 0.175
REMARK  Name = 
REMARK  10 active torsions:
REMARK  status: ('A' for Active; 'I' for Inactive)
REMARK    1  A    between atoms: C_2  and  C_3
REMARK    2  A    between atoms: N_5  and  C_6
REMARK    3  A    between atoms: C_10  and  N_11
REMARK    4  A    between atoms: N_15  and  C_16
REMARK    5  A    between atoms: C_19  and  C_20
REMARK    6  A    between atoms: C_21  and  C_22
REMARK    7  A    between atoms: C_24  and  O_25
REMARK    8  A    between atoms: O_25  and  C_26
REMARK    9  A    between atoms: C_28  and  O_29
REMARK   10  A    between atoms: O_29  and  C_30
REMARK                            x       y       z     vdW  Elec       q    Type
REMARK                         _______ _______ _______ _____ _____    ______ ____
ROOT
ATOM      1  N   UNL     1      26.329   2.090  50.903  0.00  0.00    +0.000 N 
ATOM      2  C   UNL     1      25.395   1.483  51.788  0.00  0.00    +0.000 A 
ATOM      3  N   UNL     1      24.108   1.904  51.748  0.00  0.00    +0.000 NA
ATOM      4  C   UNL     1      23.202   1.271  52.496  0.00  0.00    +0.000 A 
ATOM      5  N   UNL     1      21.892   1.735  52.440  0.00  0.00    +0.000 N 
ATOM      6  N   UNL     1      23.511   0.253  53.313  0.00  0.00    +0.000 NA
ATOM      7  C   UNL     1      24.795  -0.140  53.356  0.00  0.00    +0.000 A 
ATOM      8  C   UNL     1      25.788   0.428  52.598  0.00  0.00    +0.000 A 
ATOM      9 CL   UNL     1      27.409  -0.116  52.729  0.00  0.00    +0.000 Cl
ATOM     10  H   UNL     1      27.145   1.590  50.672  0.00  0.00    +0.000 HD
ATOM     11  H   UNL     1      21.775   2.699  52.282  0.00  0.00    +0.000 HD
ENDROOT
BRANCH   1  16
ATOM     12  C   UNL     1      24.949   5.499  50.217  0.00  0.00    +0.000 A 
ATOM     13  C   UNL     1      25.844   5.936  49.243  0.00  0.00    +0.000 A 
ATOM     14  C   UNL     1      26.874   5.095  48.806  0.00  0.00    +0.000 A 
ATOM     15  C   UNL     1      27.022   3.822  49.345  0.00  0.00    +0.000 A 
ATOM     16  C   UNL     1      26.146   3.372  50.337  0.00  0.00    +0.000 A 
ATOM     17  C   UNL     1      25.149   4.251  50.804  0.00  0.00    +0.000 A 
BRANCH  12  20
ATOM     18  C   UNL     1      22.529   6.078  50.165  0.00  0.00    +0.000 C 
ATOM     19  O   UNL     1      22.152   5.282  49.316  0.00  0.00    +0.000 OA
ATOM     20  N   UNL     1      23.817   6.238  50.638  0.00  0.00    +0.000 N 
ATOM     21  H   UNL     1      23.961   6.926  51.328  0.00  0.00    +0.000 HD
BRANCH  18  23
ATOM     22  C   UNL     1      21.033   8.032  50.207  0.00  0.00    +0.000 C 
ATOM     23  C   UNL     1      21.555   6.979  50.852  0.00  0.00    +0.000 C 
ENDBRANCH  18  23
ENDBRANCH  12  20
ENDBRANCH   1  16
BRANCH   5  24
ATOM     24  C   UNL     1      20.724   0.977  52.583  0.00  0.00    +0.000 A 
ATOM     25  C   UNL     1      20.649   0.006  53.583  0.00  0.00    +0.000 A 
ATOM     26  C   UNL     1      19.552  -0.860  53.648  0.00  0.00    +0.000 A 
ATOM     27  C   UNL     1      18.495  -0.754  52.734  0.00  0.00    +0.000 A 
ATOM     28  C   UNL     1      18.555   0.238  51.753  0.00  0.00    +0.000 A 
ATOM     29  C   UNL     1      19.656   1.091  51.684  0.00  0.00    +0.000 A 
BRANCH  27  30
ATOM     30  C   UNL     1      17.409  -1.738  52.790  0.00  0.00    +0.000 C 
ATOM     31  C   UNL     1      17.488  -2.921  53.420  0.00  0.00    +0.000 C 
BRANCH  31  32
ATOM     32  C   UNL     1      16.390  -3.897  53.463  0.00  0.00    +0.000 A 
ATOM     33  C   UNL     1      16.555  -5.065  54.220  0.00  0.00    +0.000 A 
ATOM     34  C   UNL     1      15.522  -5.997  54.319  0.00  0.00    +0.000 A 
ATOM     35  C   UNL     1      14.311  -5.760  53.661  0.00  0.00    +0.000 A 
ATOM     36  C   UNL     1      14.121  -4.591  52.925  0.00  0.00    +0.000 A 
ATOM     37  C   UNL     1      15.164  -3.669  52.828  0.00  0.00    +0.000 A 
BRANCH  34  38
ATOM     38  O   UNL     1      15.561  -7.167  55.031  0.00  0.00    +0.000 OA
ATOM     39  C   UNL     1      14.711  -7.255  56.167  0.00  0.00    +0.000 C 
ENDBRANCH  34  38
BRANCH  36  40
ATOM     40  O   UNL     1      12.974  -4.222  52.279  0.00  0.00    +0.000 OA
ATOM     41  C   UNL     1      13.009  -4.222  50.858  0.00  0.00    +0.000 C 
ENDBRANCH  36  40
ENDBRANCH  31  32
ENDBRANCH  27  30
ENDBRANCH   5  24
TORSDOF 8
ENDMDL
MODEL 6
REMARK VINA RESULT:    -9.212      0.330      2.114
REMARK INTER + INTRA:         -13.346
REMARK INTER:                 -13.573
REMARK INTRA:                   0.227
REMARK UNBOUND:                 0.175
REMARK  Name = 
REMARK  10 active torsions:
REMARK  status: ('A' for Active; 'I' for Inactive)
REMARK    1  A    between atoms: C_2  and  C_3
REMARK    2  A    between atoms: N_5  and  C_6
REMARK    3  A    between atoms: C_10  and  N_11
REMARK    4  A    between atoms: N_15  and  C_16
REMARK    5  A    between atoms: C_19  and  C_20
REMARK    6  A    between atoms: C_21  and  C_22
REMARK    7  A    between atoms: C_24  and  O_25
REMARK    8  A    between atoms: O_25  and  C_26
REMARK    9  A    between atoms: C_28  and  O_29
REMARK   10  A    between atoms: O_29  and  C_30
REMARK                            x       y       z     vdW  Elec       q    Type
REMARK                         _______ _______ _______ _____ _____    ______ ____
ROOT
ATOM      1  N   UNL     1      20.531  -0.672  53.927  0.00  0.00    +0.000 N 
ATOM      2  C   UNL     1      21.794  -0.262  53.418  0.00  0.00    +0.000 A 
ATOM      3  N   UNL     1      21.817   0.512  52.307  0.00  0.00    +0.000 NA
ATOM      4  C   UNL     1      22.987   0.990  51.881  0.00  0.00    +0.000 A 
ATOM      5  N   UNL     1      22.977   1.773  50.732  0.00  0.00    +0.000 N 
ATOM      6  N   UNL     1      24.154   0.715  52.486  0.00  0.00    +0.000 NA
ATOM      7  C   UNL     1      24.116  -0.070  53.576  0.00  0.00    +0.000 A 
ATOM      8  C   UNL     1      22.957  -0.578  54.105  0.00  0.00    +0.000 A 
ATOM      9 CL   UNL     1      22.997  -1.594  55.487  0.00  0.00    +0.000 Cl
ATOM     10  H   UNL     1      20.470  -0.922  54.877  0.00  0.00    +0.000 HD
ATOM     11  H   UNL     1      22.291   1.557  50.061  0.00  0.00    +0.000 HD
ENDROOT
BRANCH   1  16
ATOM     12  C   UNL     1      17.114  -1.609  52.725  0.00  0.00    +0.000 A 
ATOM     13  C   UNL     1      17.017  -0.795  51.598  0.00  0.00    +0.000 A 
ATOM     14  C   UNL     1      18.085   0.031  51.233  0.00  0.00    +0.000 A 
ATOM     15  C   UNL     1      19.249   0.060  51.996  0.00  0.00    +0.000 A 
ATOM     16  C   UNL     1      19.358  -0.736  53.140  0.00  0.00    +0.000 A 
ATOM     17  C   UNL     1      18.253  -1.520  53.523  0.00  0.00    +0.000 A 
BRANCH  12  20
ATOM     18  C   UNL     1      16.337  -3.907  53.278  0.00  0.00    +0.000 C 
ATOM     19  O   UNL     1      17.390  -4.513  53.137  0.00  0.00    +0.000 OA
ATOM     20  N   UNL     1      16.129  -2.552  53.105  0.00  0.00    +0.000 N 
ATOM     21  H   UNL     1      15.218  -2.213  53.258  0.00  0.00    +0.000 HD
BRANCH  18  23
ATOM     22  C   UNL     1      15.090  -5.954  53.839  0.00  0.00    +0.000 C 
ATOM     23  C   UNL     1      15.103  -4.618  53.731  0.00  0.00    +0.000 C 
ENDBRANCH  18  23
ENDBRANCH  12  20
ENDBRANCH   1  16
BRANCH   5  24
ATOM     24  C   UNL     1      23.838   2.834  50.427  0.00  0.00    +0.000 A 
ATOM     25  C   UNL     1      23.317   4.116  50.245  0.00  0.00    +0.000 A 
ATOM     26  C   UNL     1      24.138   5.156  49.796  0.00  0.00    +0.000 A 
ATOM     27  C   UNL     1      25.500   4.944  49.549  0.00  0.00    +0.000 A 
ATOM     28  C   UNL     1      26.028   3.669  49.761  0.00  0.00    +0.000 A 
ATOM     29  C   UNL     1      25.205   2.632  50.196  0.00  0.00    +0.000 A 
BRANCH  27  30
ATOM     30  C   UNL     1      26.300   6.043  48.998  0.00  0.00    +0.000 C 
ATOM     31  C   UNL     1      27.481   5.888  48.380  0.00  0.00    +0.000 C 
BRANCH  31  32
ATOM     32  C   UNL     1      28.271   7.002  47.837  0.00  0.00    +0.000 A 
ATOM     33  C   UNL     1      29.509   7.300  48.423  0.00  0.00    +0.000 A 
ATOM     34  C   UNL     1      30.307   8.324  47.911  0.00  0.00    +0.000 A 
ATOM     35  C   UNL     1      29.868   9.054  46.802  0.00  0.00    +0.000 A 
ATOM     36  C   UNL     1      28.651   8.754  46.191  0.00  0.00    +0.000 A 
ATOM     37  C   UNL     1      27.859   7.732  46.716  0.00  0.00    +0.000 A 
BRANCH  34  38
ATOM     38  O   UNL     1      31.532   8.702  48.391  0.00  0.00    +0.000 OA
ATOM     39  C   UNL     1      31.982   8.062  49.578  0.00  0.00    +0.000 C 
ENDBRANCH  34  38
BRANCH  36  40
ATOM     40  O   UNL     1      28.136   9.358  45.078  0.00  0.00    +0.000 OA
ATOM     41  C   UNL     1      26.721   9.350  44.941  0.00  0.00    +0.000 C 
ENDBRANCH  36  40
ENDBRANCH  31  32
ENDBRANCH  27  30
ENDBRANCH   5  24
TORSDOF 8
ENDMDL
MODEL 7
REMARK VINA RESULT:    -9.147      2.908      4.620
REMARK INTER + INTRA:         -13.249
REMARK INTER:                 -12.927
REMARK INTRA:                  -0.322
REMARK UNBOUND:                 0.175
REMARK  Name = 
REMARK  10 active torsions:
REMARK  status: ('A' for Active; 'I' for Inactive)
REMARK    1  A    between atoms: C_2  and  C_3
REMARK    2  A    between atoms: N_5  and  C_6
REMARK    3  A    between atoms: C_10  and  N_11
REMARK    4  A    between atoms: N_15  and  C_16
REMARK    5  A    between atoms: C_19  and  C_20
REMARK    6  A    between atoms: C_21  and  C_22
REMARK    7  A    between atoms: C_24  and  O_25
REMARK    8  A    between atoms: O_25  and  C_26
REMARK    9  A    between atoms: C_28  and  O_29
REMARK   10  A    between atoms: O_29  and  C_30
REMARK                            x       y       z     vdW  Elec       q    Type
REMARK                         _______ _______ _______ _____ _____    ______ ____
ROOT
ATOM      1  N   UNL     1      17.704   0.851  49.573  0.00  0.00    +0.000 N 
ATOM      2  C   UNL     1      18.624   1.928  49.433  0.00  0.00    +0.000 A 
ATOM      3  N   UNL     1      19.694   1.967  50.262  0.00  0.00    +0.000 NA
ATOM      4  C   UNL     1      20.618   2.910  50.072  0.00  0.00    +0.000 A 
ATOM      5  N   UNL     1      21.699   2.930  50.946  0.00  0.00    +0.000 N 
ATOM      6  N   UNL     1      20.523   3.846  49.114  0.00  0.00    +0.000 NA
ATOM      7  C   UNL     1      19.445   3.804  48.312  0.00  0.00    +0.000 A 
ATOM      8  C   UNL     1      18.463   2.852  48.411  0.00  0.00    +0.000 A 
ATOM      9 CL   UNL     1      17.104   2.883  47.364  0.00  0.00    +0.000 Cl
ATOM     10  H   UNL     1      17.142   0.614  48.800  0.00  0.00    +0.000 HD
ATOM     11  H   UNL     1      21.524   2.628  51.866  0.00  0.00    +0.000 HD
ENDROOT
BRANCH   1  16
ATOM     12  C   UNL     1      18.449  -0.746  52.873  0.00  0.00    +0.000 A 
ATOM     13  C   UNL     1      17.215  -1.333  53.147  0.00  0.00    +0.000 A 
ATOM     14  C   UNL     1      16.163  -1.217  52.232  0.00  0.00    +0.000 A 
ATOM     15  C   UNL     1      16.331  -0.508  51.048  0.00  0.00    +0.000 A 
ATOM     16  C   UNL     1      17.556   0.103  50.763  0.00  0.00    +0.000 A 
ATOM     17  C   UNL     1      18.587   0.023  51.719  0.00  0.00    +0.000 A 
BRANCH  12  20
ATOM     18  C   UNL     1      20.543   0.070  53.942  0.00  0.00    +0.000 C 
ATOM     19  O   UNL     1      20.550   1.217  53.516  0.00  0.00    +0.000 OA
ATOM     20  N   UNL     1      19.597  -0.904  53.687  0.00  0.00    +0.000 N 
ATOM     21  H   UNL     1      19.732  -1.784  54.108  0.00  0.00    +0.000 HD
BRANCH  18  23
ATOM     22  C   UNL     1      22.157  -1.612  54.731  0.00  0.00    +0.000 C 
ATOM     23  C   UNL     1      21.604  -0.400  54.883  0.00  0.00    +0.000 C 
ENDBRANCH  18  23
ENDBRANCH  12  20
ENDBRANCH   1  16
BRANCH   5  24
ATOM     24  C   UNL     1      23.009   3.333  50.658  0.00  0.00    +0.000 A 
ATOM     25  C   UNL     1      23.382   4.664  50.857  0.00  0.00    +0.000 A 
ATOM     26  C   UNL     1      24.636   5.118  50.436  0.00  0.00    +0.000 A 
ATOM     27  C   UNL     1      25.554   4.246  49.837  0.00  0.00    +0.000 A 
ATOM     28  C   UNL     1      25.194   2.908  49.666  0.00  0.00    +0.000 A 
ATOM     29  C   UNL     1      23.938   2.462  50.075  0.00  0.00    +0.000 A 
BRANCH  27  30
ATOM     30  C   UNL     1      26.822   4.787  49.336  0.00  0.00    +0.000 C 
ATOM     31  C   UNL     1      26.935   5.912  48.613  0.00  0.00    +0.000 C 
BRANCH  31  32
ATOM     32  C   UNL     1      28.214   6.439  48.117  0.00  0.00    +0.000 A 
ATOM     33  C   UNL     1      29.364   5.647  48.243  0.00  0.00    +0.000 A 
ATOM     34  C   UNL     1      30.589   6.094  47.748  0.00  0.00    +0.000 A 
ATOM     35  C   UNL     1      30.668   7.339  47.116  0.00  0.00    +0.000 A 
ATOM     36  C   UNL     1      29.529   8.128  46.959  0.00  0.00    +0.000 A 
ATOM     37  C   UNL     1      28.310   7.674  47.464  0.00  0.00    +0.000 A 
BRANCH  34  38
ATOM     38  O   UNL     1      31.775   5.411  47.805  0.00  0.00    +0.000 OA
ATOM     39  C   UNL     1      31.816   4.142  47.164  0.00  0.00    +0.000 C 
ENDBRANCH  34  38
BRANCH  36  40
ATOM     40  O   UNL     1      29.465   9.336  46.322  0.00  0.00    +0.000 OA
ATOM     41  C   UNL     1      28.193   9.968  46.270  0.00  0.00    +0.000 C 
ENDBRANCH  36  40
ENDBRANCH  31  32
ENDBRANCH  27  30
ENDBRANCH   5  24
TORSDOF 8
ENDMDL
MODEL 8
REMARK VINA RESULT:    -9.123      2.075      3.427
REMARK INTER + INTRA:         -13.215
REMARK INTER:                 -13.225
REMARK INTRA:                   0.010
REMARK UNBOUND:                 0.175
REMARK  Name = 
REMARK  10 active torsions:
REMARK  status: ('A' for Active; 'I' for Inactive)
REMARK    1  A    between atoms: C_2  and  C_3
REMARK    2  A    between atoms: N_5  and  C_6
REMARK    3  A    between atoms: C_10  and  N_11
REMARK    4  A    between atoms: N_15  and  C_16
REMARK    5  A    between atoms: C_19  and  C_20
REMARK    6  A    between atoms: C_21  and  C_22
REMARK    7  A    between atoms: C_24  and  O_25
REMARK    8  A    between atoms: O_25  and  C_26
REMARK    9  A    between atoms: C_28  and  O_29
REMARK   10  A    between atoms: O_29  and  C_30
REMARK                            x       y       z     vdW  Elec       q    Type
REMARK                         _______ _______ _______ _____ _____    ______ ____
ROOT
ATOM      1  N   UNL     1      20.617  -0.311  53.902  0.00  0.00    +0.000 N 
ATOM      2  C   UNL     1      21.918  -0.066  53.381  0.00  0.00    +0.000 A 
ATOM      3  N   UNL     1      22.027   0.671  52.251  0.00  0.00    +0.000 NA
ATOM      4  C   UNL     1      23.245   0.997  51.812  0.00  0.00    +0.000 A 
ATOM      5  N   UNL     1      23.322   1.747  50.643  0.00  0.00    +0.000 N 
ATOM      6  N   UNL     1      24.373   0.600  52.421  0.00  0.00    +0.000 NA
ATOM      7  C   UNL     1      24.247  -0.148  53.530  0.00  0.00    +0.000 A 
ATOM      8  C   UNL     1      23.039  -0.502  54.074  0.00  0.00    +0.000 A 
ATOM      9 CL   UNL     1      22.964  -1.481  55.480  0.00  0.00    +0.000 Cl
ATOM     10  H   UNL     1      20.531  -0.529  54.858  0.00  0.00    +0.000 HD
ATOM     11  H   UNL     1      22.612   1.597  49.979  0.00  0.00    +0.000 HD
ENDROOT
BRANCH   1  16
ATOM     12  C   UNL     1      18.103   0.777  51.354  0.00  0.00    +0.000 A 
ATOM     13  C   UNL     1      17.128  -0.204  51.535  0.00  0.00    +0.000 A 
ATOM     14  C   UNL     1      17.299  -1.193  52.509  0.00  0.00    +0.000 A 
ATOM     15  C   UNL     1      18.445  -1.218  53.298  0.00  0.00    +0.000 A 
ATOM     16  C   UNL     1      19.441  -0.254  53.119  0.00  0.00    +0.000 A 
ATOM     17  C   UNL     1      19.278   0.702  52.098  0.00  0.00    +0.000 A 
BRANCH  12  20
ATOM     18  C   UNL     1      17.802   3.194  50.846  0.00  0.00    +0.000 C 
ATOM     19  O   UNL     1      17.754   3.633  51.987  0.00  0.00    +0.000 OA
ATOM     20  N   UNL     1      17.963   1.875  50.471  0.00  0.00    +0.000 N 
ATOM     21  H   UNL     1      17.983   1.680  49.506  0.00  0.00    +0.000 HD
BRANCH  18  23
ATOM     22  C   UNL     1      18.660   5.073  49.507  0.00  0.00    +0.000 C 
ATOM     23  C   UNL     1      17.737   4.115  49.672  0.00  0.00    +0.000 C 
ENDBRANCH  18  23
ENDBRANCH  12  20
ENDBRANCH   1  16
BRANCH   5  24
ATOM     24  C   UNL     1      24.302   2.690  50.311  0.00  0.00    +0.000 A 
ATOM     25  C   UNL     1      23.948   3.826  49.581  0.00  0.00    +0.000 A 
ATOM     26  C   UNL     1      24.932   4.702  49.112  0.00  0.00    +0.000 A 
ATOM     27  C   UNL     1      26.287   4.477  49.390  0.00  0.00    +0.000 A 
ATOM     28  C   UNL     1      26.639   3.358  50.146  0.00  0.00    +0.000 A 
ATOM     29  C   UNL     1      25.656   2.480  50.601  0.00  0.00    +0.000 A 
BRANCH  27  30
ATOM     30  C   UNL     1      27.288   5.377  48.805  0.00  0.00    +0.000 C 
ATOM     31  C   UNL     1      27.027   6.613  48.354  0.00  0.00    +0.000 C 
BRANCH  31  32
ATOM     32  C   UNL     1      28.042   7.500  47.768  0.00  0.00    +0.000 A 
ATOM     33  C   UNL     1      27.660   8.382  46.749  0.00  0.00    +0.000 A 
ATOM     34  C   UNL     1      28.585   9.268  46.195  0.00  0.00    +0.000 A 
ATOM     35  C   UNL     1      29.901   9.278  46.665  0.00  0.00    +0.000 A 
ATOM     36  C   UNL     1      30.292   8.425  47.697  0.00  0.00    +0.000 A 
ATOM     37  C   UNL     1      29.360   7.538  48.238  0.00  0.00    +0.000 A 
BRANCH  34  38
ATOM     38  O   UNL     1      28.330  10.178  45.203  0.00  0.00    +0.000 OA
ATOM     39  C   UNL     1      28.597   9.765  43.869  0.00  0.00    +0.000 C 
ENDBRANCH  34  38
BRANCH  36  40
ATOM     40  O   UNL     1      31.530   8.371  48.274  0.00  0.00    +0.000 OA
ATOM     41  C   UNL     1      31.672   7.529  49.410  0.00  0.00    +0.000 C 
ENDBRANCH  36  40
ENDBRANCH  31  32
ENDBRANCH  27  30
ENDBRANCH   5  24
TORSDOF 8
ENDMDL
MODEL 9
REMARK VINA RESULT:    -8.966      4.885      8.305
REMARK INTER + INTRA:         -12.984
REMARK INTER:                 -12.317
REMARK INTRA:                  -0.667
REMARK UNBOUND:                 0.175
REMARK  Name = 
REMARK  10 active torsions:
REMARK  status: ('A' for Active; 'I' for Inactive)
REMARK    1  A    between atoms: C_2  and  C_3
REMARK    2  A    between atoms: N_5  and  C_6
REMARK    3  A    between atoms: C_10  and  N_11
REMARK    4  A    between atoms: N_15  and  C_16
REMARK    5  A    between atoms: C_19  and  C_20
REMARK    6  A    between atoms: C_21  and  C_22
REMARK    7  A    between atoms: C_24  and  O_25
REMARK    8  A    between atoms: O_25  and  C_26
REMARK    9  A    between atoms: C_28  and  O_29
REMARK   10  A    between atoms: O_29  and  C_30
REMARK                            x       y       z     vdW  Elec       q    Type
REMARK                         _______ _______ _______ _____ _____    ______ ____
ROOT
ATOM      1  N   UNL     1      13.536  -3.748  52.063  0.00  0.00    +0.000 N 
ATOM      2  C   UNL     1      14.469  -2.706  51.800  0.00  0.00    +0.000 A 
ATOM      3  N   UNL     1      15.446  -2.478  52.709  0.00  0.00    +0.000 NA
ATOM      4  C   UNL     1      16.389  -1.577  52.426  0.00  0.00    +0.000 A 
ATOM      5  N   UNL     1      17.372  -1.359  53.384  0.00  0.00    +0.000 N 
ATOM      6  N   UNL     1      16.398  -0.860  51.291  0.00  0.00    +0.000 NA
ATOM      7  C   UNL     1      15.410  -1.086  50.408  0.00  0.00    +0.000 A 
ATOM      8  C   UNL     1      14.420  -2.014  50.598  0.00  0.00    +0.000 A 
ATOM      9 CL   UNL     1      13.179  -2.224  49.432  0.00  0.00    +0.000 Cl
ATOM     10  H   UNL     1      13.058  -4.149  51.301  0.00  0.00    +0.000 HD
ATOM     11  H   UNL     1      17.100  -1.469  54.324  0.00  0.00    +0.000 HD
ENDROOT
BRANCH   1  16
ATOM     12  C   UNL     1      13.477  -5.963  55.077  0.00  0.00    +0.000 A 
ATOM     13  C   UNL     1      12.757  -5.159  55.960  0.00  0.00    +0.000 A 
ATOM     14  C   UNL     1      12.278  -3.912  55.544  0.00  0.00    +0.000 A 
ATOM     15  C   UNL     1      12.525  -3.455  54.253  0.00  0.00    +0.000 A 
ATOM     16  C   UNL     1      13.261  -4.238  53.360  0.00  0.00    +0.000 A 
ATOM     17  C   UNL     1      13.782  -5.467  53.812  0.00  0.00    +0.000 A 
BRANCH  12  20
ATOM     18  C   UNL     1      15.025  -7.615  56.110  0.00  0.00    +0.000 C 
ATOM     19  O   UNL     1      15.828  -6.844  56.619  0.00  0.00    +0.000 OA
ATOM     20  N   UNL     1      13.904  -7.279  55.377  0.00  0.00    +0.000 N 
ATOM     21  H   UNL     1      13.353  -8.019  55.033  0.00  0.00    +0.000 HD
BRANCH  18  23
ATOM     22  C   UNL     1      16.191  -9.595  56.992  0.00  0.00    +0.000 C 
ATOM     23  C   UNL     1      15.166  -9.091  56.290  0.00  0.00    +0.000 C 
ENDBRANCH  18  23
ENDBRANCH  12  20
ENDBRANCH   1  16
BRANCH   5  24
ATOM     24  C   UNL     1      18.706  -1.000  53.156  0.00  0.00    +0.000 A 
ATOM     25  C   UNL     1      19.716  -1.563  53.938  0.00  0.00    +0.000 A 
ATOM     26  C   UNL     1      21.034  -1.107  53.827  0.00  0.00    +0.000 A 
ATOM     27  C   UNL     1      21.374  -0.103  52.912  0.00  0.00    +0.000 A 
ATOM     28  C   UNL     1      20.370   0.438  52.107  0.00  0.00    +0.000 A 
ATOM     29  C   UNL     1      19.056  -0.009  52.230  0.00  0.00    +0.000 A 
BRANCH  27  30
ATOM     30  C   UNL     1      22.753   0.400  52.892  0.00  0.00    +0.000 C 
ATOM     31  C   UNL     1      23.842  -0.363  53.074  0.00  0.00    +0.000 C 
BRANCH  31  32
ATOM     32  C   UNL     1      25.215   0.159  53.054  0.00  0.00    +0.000 A 
ATOM     33  C   UNL     1      26.216  -0.549  53.734  0.00  0.00    +0.000 A 
ATOM     34  C   UNL     1      27.540  -0.109  53.706  0.00  0.00    +0.000 A 
ATOM     35  C   UNL     1      27.870   1.045  52.989  0.00  0.00    +0.000 A 
ATOM     36  C   UNL     1      26.892   1.746  52.285  0.00  0.00    +0.000 A 
ATOM     37  C   UNL     1      25.570   1.301  52.326  0.00  0.00    +0.000 A 
BRANCH  34  38
ATOM     38  O   UNL     1      28.601  -0.717  54.322  0.00  0.00    +0.000 OA
ATOM     39  C   UNL     1      29.697  -1.086  53.496  0.00  0.00    +0.000 C 
ENDBRANCH  34  38
BRANCH  36  40
ATOM     40  O   UNL     1      27.094   2.856  51.511  0.00  0.00    +0.000 OA
ATOM     41  C   UNL     1      26.062   3.195  50.594  0.00  0.00    +0.000 C 
ENDBRANCH  36  40
ENDBRANCH  31  32
ENDBRANCH  27  30
ENDBRANCH   5  24
TORSDOF 8
ENDMDL
