REMARK  Name = 
REMARK  5 active torsions:
REMARK  status: ('A' for Active; 'I' for Inactive)
REMARK    1  A    between atoms: C_1  and  C_2
REMARK    2  A    between atoms: C_2  and  C_3
REMARK    3  A    between atoms: C_2  and  C_4
REMARK    4  A    between atoms: C_5  and  C_6
REMARK    5  A    between atoms: N_14  and  C_15
REMARK                            x       y       z     vdW  Elec       q    Type
REMARK                         _______ _______ _______ _____ _____    ______ ____
ROOT
ATOM      1  C   UNL     1      -3.619   0.160   1.472  0.00  0.00    +0.000 A 
ATOM      2  C   UNL     1      -4.380  -0.995   1.345  0.00  0.00    +0.000 A 
ATOM      3  C   UNL     1      -5.778  -0.909   1.360  0.00  0.00    +0.000 A 
ATOM      4  C   UNL     1      -6.436   0.309   1.469  0.00  0.00    +0.000 A 
ATOM      5  N   UNL     1      -7.772   0.318   1.470  0.00  0.00    +0.000 NA
ATOM      6  C   UNL     1      -8.365   1.512   1.555  0.00  0.00    +0.000 A 
ATOM      7  N   UNL     1      -7.745   2.694   1.614  0.00  0.00    +0.000 NA
ATOM      8  C   UNL     1      -6.399   2.679   1.595  0.00  0.00    +0.000 A 
ATOM      9  N   UNL     1      -5.703   3.924   1.556  0.00  0.00    +0.000 N 
ATOM     10  C   UNL     1      -5.670   1.480   1.560  0.00  0.00    +0.000 A 
ATOM     11  C   UNL     1      -4.259   1.392   1.599  0.00  0.00    +0.000 A 
ATOM     12  H   UNL     1      -4.737   3.913   1.367  0.00  0.00    +0.000 HD
ENDROOT
BRANCH   9  13
ATOM     13  C   UNL     1      -6.329   5.173   1.775  0.00  0.00    +0.000 A 
ATOM     14  C   UNL     1      -7.137   5.370   2.906  0.00  0.00    +0.000 A 
ATOM     15  C   UNL     1      -7.828   6.566   3.096  0.00  0.00    +0.000 A 
ATOM     16  C   UNL     1      -7.709   7.577   2.152  0.00  0.00    +0.000 A 
ATOM     17  F   UNL     1      -8.409   8.707   2.330  0.00  0.00    +0.000 F 
ATOM     18  C   UNL     1      -6.882   7.416   1.043  0.00  0.00    +0.000 A 
ATOM     19 CL   UNL     1      -6.735   8.673  -0.127  0.00  0.00    +0.000 Cl
ATOM     20  C   UNL     1      -6.179   6.222   0.858  0.00  0.00    +0.000 A 
ENDBRANCH   9  13
BRANCH   1  22
ATOM     21  C   UNL     1      -0.991   0.151   1.376  0.00  0.00    +0.000 C 
ATOM     22  C   UNL     1      -2.191   0.118   1.435  0.00  0.00    +0.000 C 
BRANCH  21  24
ATOM     23  C   UNL     1       0.964  -0.210  -0.081  0.00  0.00    +0.000 C 
ATOM     24  C   UNL     1       0.479   0.221   1.300  0.00  0.00    +0.000 C 
ATOM     25  C   UNL     1       0.967   1.634   1.615  0.00  0.00    +0.000 C 
ENDBRANCH  21  24
ENDBRANCH   1  22
TORSDOF 3
