REMARK  Name = 
REMARK  7 active torsions:
REMARK  status: ('A' for Active; 'I' for Inactive)
REMARK    1  A    between atoms: C_1  and  O_2
REMARK    2  A    between atoms: O_2  and  C_3
REMARK    3  A    between atoms: C_6  and  N_7
REMARK    4  A    between atoms: N_7  and  C_8
REMARK    5  A    between atoms: C_22  and  O_23
REMARK    6  A    between atoms: O_23  and  C_24
REMARK    7  A    between atoms: C_24  and  C_25
REMARK                            x       y       z     vdW  Elec       q    Type
REMARK                         _______ _______ _______ _____ _____    ______ ____
ROOT
ATOM      1  C   UNL     1      -1.250  -3.112   0.475  0.00  0.00    +0.000 A 
ATOM      2  C   UNL     1      -2.376  -3.437  -0.280  0.00  0.00    +0.000 A 
ATOM      3  C   UNL     1      -2.780  -4.787  -0.452  0.00  0.00    +0.000 A 
ATOM      4  C   UNL     1      -3.909  -5.236  -1.157  0.00  0.00    +0.000 A 
ATOM      5  N   UNL     1      -4.099  -6.539  -1.429  0.00  0.00    +0.000 NA
ATOM      6  C   UNL     1      -3.249  -7.410  -0.901  0.00  0.00    +0.000 A 
ATOM      7  N   UNL     1      -2.252  -7.112  -0.068  0.00  0.00    +0.000 NA
ATOM      8  C   UNL     1      -2.019  -5.808   0.124  0.00  0.00    +0.000 A 
ATOM      9  C   UNL     1      -0.930  -5.476   0.906  0.00  0.00    +0.000 A 
ATOM     10  C   UNL     1      -0.483  -4.153   0.999  0.00  0.00    +0.000 A 
ENDROOT
BRANCH   1  12
ATOM     11  C   UNL     1      -0.451  -1.206   1.697  0.00  0.00    +0.000 C 
ATOM     12  O   UNL     1      -0.973  -1.773   0.495  0.00  0.00    +0.000 OA
ENDBRANCH   1  12
BRANCH   4  13
ATOM     13  N   UNL     1      -4.907  -4.298  -1.571  0.00  0.00    +0.000 N 
ATOM     14  H   UNL     1      -4.613  -3.383  -1.785  0.00  0.00    +0.000 HD
BRANCH  13  15
ATOM     15  C   UNL     1      -6.297  -4.592  -1.697  0.00  0.00    +0.000 A 
ATOM     16  C   UNL     1      -6.793  -5.823  -2.138  0.00  0.00    +0.000 A 
ATOM     17  C   UNL     1      -8.163  -6.096  -2.141  0.00  0.00    +0.000 A 
ATOM     18 CL   UNL     1      -8.663  -7.690  -2.585  0.00  0.00    +0.000 Cl
ATOM     19  C   UNL     1      -9.073  -5.102  -1.763  0.00  0.00    +0.000 A 
ATOM     20 CL   UNL     1     -10.777  -5.377  -1.723  0.00  0.00    +0.000 Cl
ATOM     21  C   UNL     1      -8.607  -3.838  -1.399  0.00  0.00    +0.000 A 
ATOM     22  C   UNL     1      -7.235  -3.595  -1.375  0.00  0.00    +0.000 A 
ATOM     23  F   UNL     1      -6.797  -2.389  -0.976  0.00  0.00    +0.000 F 
ENDBRANCH  13  15
ENDBRANCH   4  13
BRANCH  10  24
ATOM     24  O   UNL     1       0.777  -4.047   1.525  0.00  0.00    +0.000 OA
BRANCH  24  25
ATOM     25  C   UNL     1       1.617  -3.159   0.792  0.00  0.00    +0.000 C 
BRANCH  25  26
ATOM     26  C   UNL     1       2.773  -3.815   0.086  0.00  0.00    +0.000 C 
ATOM     27  C   UNL     1       3.597  -4.670   1.029  0.00  0.00    +0.000 C 
ATOM     28  N   UNL     1       4.933  -4.572   0.458  0.00  0.00    +0.000 N 
ATOM     29  C   UNL     1       5.964  -5.166   1.285  0.00  0.00    +0.000 C 
ATOM     30  C   UNL     1       6.219  -6.599   0.866  0.00  0.00    +0.000 C 
ATOM     31  O   UNL     1       6.819  -6.588  -0.426  0.00  0.00    +0.000 OA
ATOM     32  C   UNL     1       5.977  -6.016  -1.433  0.00  0.00    +0.000 C 
ATOM     33  C   UNL     1       4.945  -4.944  -0.981  0.00  0.00    +0.000 C 
ATOM     34  C   UNL     1       3.534  -5.305  -1.590  0.00  0.00    +0.000 C 
ATOM     35  O   UNL     1       2.406  -4.571  -1.072  0.00  0.00    +0.000 OA
ATOM     36  H   UNL     1       5.200  -3.588   0.465  0.00  0.00    +0.000 HD
ENDBRANCH  25  26
ENDBRANCH  24  25
ENDBRANCH  10  24
TORSDOF 6
