MODEL 1
REMARK VINA RESULT:    -9.247      0.000      0.000
REMARK INTER + INTRA:         -12.745
REMARK INTER:                 -13.301
REMARK INTRA:                   0.556
REMARK UNBOUND:                 0.556
REMARK  Name = 
REMARK  8 active torsions:
REMARK  status: ('A' for Active; 'I' for Inactive)
REMARK    1  A    between atoms: C_2  and  C_3
REMARK    2  A    between atoms: C_8  and  O_9
REMARK    3  A    between atoms: O_9  and  C_10
REMARK    4  A    between atoms: N_13  and  C_14
REMARK    5  A    between atoms: C_17  and  C_18
REMARK    6  A    between atoms: C_18  and  N_19
REMARK    7  A    between atoms: C_22  and  C_23
REMARK    8  A    between atoms: C_23  and  O_24
REMARK                            x       y       z     vdW  Elec       q    Type
REMARK                         _______ _______ _______ _____ _____    ______ ____
ROOT
ATOM      1  C   UNL     1      25.022   6.844  49.210  0.00  0.00    +0.000 A 
ATOM      2  N   UNL     1      25.725   6.042  50.043  0.00  0.00    +0.000 NA
ATOM      3  C   UNL     1      25.349   4.757  50.100  0.00  0.00    +0.000 A 
ATOM      4  N   UNL     1      26.110   3.914  50.899  0.00  0.00    +0.000 N 
ATOM      5  N   UNL     1      24.323   4.254  49.392  0.00  0.00    +0.000 NA
ATOM      6  C   UNL     1      23.702   5.077  48.523  0.00  0.00    +0.000 A 
ATOM      7  C   UNL     1      24.027   6.397  48.368  0.00  0.00    +0.000 A 
ATOM      8 CL   UNL     1      23.210   7.380  47.229  0.00  0.00    +0.000 Cl
ATOM      9  H   UNL     1      27.062   4.150  50.987  0.00  0.00    +0.000 HD
ENDROOT
BRANCH   4  10
ATOM     10  C   UNL     1      25.698   2.770  51.596  0.00  0.00    +0.000 A 
ATOM     11  C   UNL     1      24.682   2.885  52.549  0.00  0.00    +0.000 A 
ATOM     12  C   UNL     1      24.239   1.768  53.259  0.00  0.00    +0.000 A 
ATOM     13  C   UNL     1      24.783   0.502  53.005  0.00  0.00    +0.000 A 
ATOM     14  C   UNL     1      25.813   0.386  52.065  0.00  0.00    +0.000 A 
ATOM     15  C   UNL     1      26.268   1.511  51.374  0.00  0.00    +0.000 A 
BRANCH  13  16
ATOM     16  C   UNL     1      24.237  -0.727  53.699  0.00  0.00    +0.000 C 
BRANCH  16  17
ATOM     17  N   UNL     1      22.818  -0.979  53.388  0.00  0.00    +0.000 N 
ATOM     18  C   UNL     1      22.032  -1.259  54.601  0.00  0.00    +0.000 C 
ATOM     19  C   UNL     1      20.582  -1.593  54.248  0.00  0.00    +0.000 C 
ATOM     20  C   UNL     1      19.929  -0.467  53.437  0.00  0.00    +0.000 C 
ATOM     21  C   UNL     1      20.812  -0.112  52.236  0.00  0.00    +0.000 C 
ATOM     22  C   UNL     1      22.255   0.169  52.665  0.00  0.00    +0.000 C 
ATOM     23  H   UNL     1      22.768  -1.808  52.797  0.00  0.00    +0.000 HD
BRANCH  20  24
ATOM     24  C   UNL     1      18.518  -0.837  52.973  0.00  0.00    +0.000 C 
BRANCH  24  25
ATOM     25  O   UNL     1      17.722  -1.271  54.068  0.00  0.00    +0.000 OA
ATOM     26  H   UNL     1      17.061  -1.907  53.755  0.00  0.00    +0.000 HD
ENDBRANCH  24  25
ENDBRANCH  20  24
ENDBRANCH  16  17
ENDBRANCH  13  16
ENDBRANCH   4  10
BRANCH   1  27
ATOM     27  O   UNL     1      25.291   8.197  49.225  0.00  0.00    +0.000 OA
BRANCH  27  33
ATOM     28  C   UNL     1      30.666   7.666  48.883  0.00  0.00    +0.000 C 
ATOM     29  O   UNL     1      31.330   8.120  49.814  0.00  0.00    +0.000 OA
ATOM     30  N   UNL     1      29.413   8.152  48.543  0.00  0.00    +0.000 N 
ATOM     31  C   UNL     1      28.876   9.277  49.310  0.00  0.00    +0.000 C 
ATOM     32  C   UNL     1      27.469   8.965  49.800  0.00  0.00    +0.000 C 
ATOM     33  C   UNL     1      26.548   8.574  48.637  0.00  0.00    +0.000 C 
ATOM     34  C   UNL     1      27.184   7.418  47.843  0.00  0.00    +0.000 C 
ATOM     35  C   UNL     1      28.598   7.763  47.396  0.00  0.00    +0.000 C 
BRANCH  28  37
ATOM     36  C   UNL     1      31.827   5.517  48.694  0.00  0.00    +0.000 C 
ATOM     37  C   UNL     1      31.219   6.539  48.078  0.00  0.00    +0.000 C 
ENDBRANCH  28  37
ENDBRANCH  27  33
ENDBRANCH   1  27
TORSDOF 8
ENDMDL
MODEL 2
REMARK VINA RESULT:    -9.177      5.232      7.892
REMARK INTER + INTRA:         -12.645
REMARK INTER:                 -12.282
REMARK INTRA:                  -0.363
REMARK UNBOUND:                 0.556
REMARK  Name = 
REMARK  8 active torsions:
REMARK  status: ('A' for Active; 'I' for Inactive)
REMARK    1  A    between atoms: C_2  and  C_3
REMARK    2  A    between atoms: C_8  and  O_9
REMARK    3  A    between atoms: O_9  and  C_10
REMARK    4  A    between atoms: N_13  and  C_14
REMARK    5  A    between atoms: C_17  and  C_18
REMARK    6  A    between atoms: C_18  and  N_19
REMARK    7  A    between atoms: C_22  and  C_23
REMARK    8  A    between atoms: C_23  and  O_24
REMARK                            x       y       z     vdW  Elec       q    Type
REMARK                         _______ _______ _______ _____ _____    ______ ____
ROOT
ATOM      1  C   UNL     1      23.231   2.805  51.430  0.00  0.00    +0.000 A 
ATOM      2  N   UNL     1      22.495   1.768  50.969  0.00  0.00    +0.000 NA
ATOM      3  C   UNL     1      21.165   1.870  51.100  0.00  0.00    +0.000 A 
ATOM      4  N   UNL     1      20.401   0.840  50.566  0.00  0.00    +0.000 N 
ATOM      5  N   UNL     1      20.555   2.926  51.663  0.00  0.00    +0.000 NA
ATOM      6  C   UNL     1      21.328   3.965  52.040  0.00  0.00    +0.000 A 
ATOM      7  C   UNL     1      22.691   3.973  51.926  0.00  0.00    +0.000 A 
ATOM      8 CL   UNL     1      23.610   5.336  52.403  0.00  0.00    +0.000 Cl
ATOM      9  H   UNL     1      20.783   0.385  49.781  0.00  0.00    +0.000 HD
ENDROOT
BRANCH   4  10
ATOM     10  C   UNL     1      19.156   0.367  51.000  0.00  0.00    +0.000 A 
ATOM     11  C   UNL     1      19.029  -0.111  52.308  0.00  0.00    +0.000 A 
ATOM     12  C   UNL     1      17.804  -0.584  52.780  0.00  0.00    +0.000 A 
ATOM     13  C   UNL     1      16.668  -0.559  51.960  0.00  0.00    +0.000 A 
ATOM     14  C   UNL     1      16.795  -0.099  50.644  0.00  0.00    +0.000 A 
ATOM     15  C   UNL     1      18.028   0.352  50.170  0.00  0.00    +0.000 A 
BRANCH  13  16
ATOM     16  C   UNL     1      15.317  -0.977  52.499  0.00  0.00    +0.000 C 
BRANCH  16  17
ATOM     17  N   UNL     1      14.616   0.115  53.201  0.00  0.00    +0.000 N 
ATOM     18  C   UNL     1      14.577   1.347  52.397  0.00  0.00    +0.000 C 
ATOM     19  C   UNL     1      13.915   2.486  53.173  0.00  0.00    +0.000 C 
ATOM     20  C   UNL     1      12.504   2.104  53.636  0.00  0.00    +0.000 C 
ATOM     21  C   UNL     1      12.545   0.765  54.380  0.00  0.00    +0.000 C 
ATOM     22  C   UNL     1      13.257  -0.312  53.556  0.00  0.00    +0.000 C 
ATOM     23  H   UNL     1      15.138   0.326  54.053  0.00  0.00    +0.000 HD
BRANCH  20  24
ATOM     24  C   UNL     1      11.876   3.186  54.517  0.00  0.00    +0.000 C 
BRANCH  24  25
ATOM     25  O   UNL     1      12.861   4.104  54.972  0.00  0.00    +0.000 OA
ATOM     26  H   UNL     1      12.449   4.753  55.564  0.00  0.00    +0.000 HD
ENDBRANCH  24  25
ENDBRANCH  20  24
ENDBRANCH  16  17
ENDBRANCH  13  16
ENDBRANCH   4  10
BRANCH   1  27
ATOM     27  O   UNL     1      24.605   2.680  51.437  0.00  0.00    +0.000 OA
BRANCH  27  33
ATOM     28  C   UNL     1      28.029  -1.006  53.433  0.00  0.00    +0.000 C 
ATOM     29  O   UNL     1      27.774  -2.186  53.198  0.00  0.00    +0.000 OA
ATOM     30  N   UNL     1      27.056  -0.019  53.478  0.00  0.00    +0.000 N 
ATOM     31  C   UNL     1      25.662  -0.412  53.267  0.00  0.00    +0.000 C 
ATOM     32  C   UNL     1      25.016   0.464  52.203  0.00  0.00    +0.000 C 
ATOM     33  C   UNL     1      25.144   1.953  52.554  0.00  0.00    +0.000 C 
ATOM     34  C   UNL     1      26.624   2.296  52.806  0.00  0.00    +0.000 C 
ATOM     35  C   UNL     1      27.236   1.379  53.858  0.00  0.00    +0.000 C 
BRANCH  28  37
ATOM     36  C   UNL     1      30.375  -1.541  53.894  0.00  0.00    +0.000 C 
ATOM     37  C   UNL     1      29.444  -0.602  53.679  0.00  0.00    +0.000 C 
ENDBRANCH  28  37
ENDBRANCH  27  33
ENDBRANCH   1  27
TORSDOF 8
ENDMDL
MODEL 3
REMARK VINA RESULT:    -9.139      6.350     11.729
REMARK INTER + INTRA:         -12.589
REMARK INTER:                 -12.071
REMARK INTRA:                  -0.518
REMARK UNBOUND:                 0.556
REMARK  Name = 
REMARK  8 active torsions:
REMARK  status: ('A' for Active; 'I' for Inactive)
REMARK    1  A    between atoms: C_2  and  C_3
REMARK    2  A    between atoms: C_8  and  O_9
REMARK    3  A    between atoms: O_9  and  C_10
REMARK    4  A    between atoms: N_13  and  C_14
REMARK    5  A    between atoms: C_17  and  C_18
REMARK    6  A    between atoms: C_18  and  N_19
REMARK    7  A    between atoms: C_22  and  C_23
REMARK    8  A    between atoms: C_23  and  O_24
REMARK                            x       y       z     vdW  Elec       q    Type
REMARK                         _______ _______ _______ _____ _____    ______ ____
ROOT
ATOM      1  C   UNL     1      16.867   1.005  50.207  0.00  0.00    +0.000 A 
ATOM      2  N   UNL     1      17.922   0.221  50.525  0.00  0.00    +0.000 NA
ATOM      3  C   UNL     1      18.821   0.738  51.373  0.00  0.00    +0.000 A 
ATOM      4  N   UNL     1      19.870  -0.087  51.759  0.00  0.00    +0.000 N 
ATOM      5  N   UNL     1      18.722   1.973  51.895  0.00  0.00    +0.000 NA
ATOM      6  C   UNL     1      17.616   2.686  51.603  0.00  0.00    +0.000 A 
ATOM      7  C   UNL     1      16.626   2.239  50.772  0.00  0.00    +0.000 A 
ATOM      8 CL   UNL     1      15.235   3.189  50.463  0.00  0.00    +0.000 Cl
ATOM      9  H   UNL     1      19.670  -1.051  51.784  0.00  0.00    +0.000 HD
ENDROOT
BRANCH   4  10
ATOM     10  C   UNL     1      21.175   0.275  52.116  0.00  0.00    +0.000 A 
ATOM     11  C   UNL     1      21.940   1.029  51.220  0.00  0.00    +0.000 A 
ATOM     12  C   UNL     1      23.242   1.415  51.542  0.00  0.00    +0.000 A 
ATOM     13  C   UNL     1      23.796   1.082  52.785  0.00  0.00    +0.000 A 
ATOM     14  C   UNL     1      23.041   0.312  53.676  0.00  0.00    +0.000 A 
ATOM     15  C   UNL     1      21.747  -0.091  53.340  0.00  0.00    +0.000 A 
BRANCH  13  16
ATOM     16  C   UNL     1      25.169   1.584  53.178  0.00  0.00    +0.000 C 
BRANCH  16  17
ATOM     17  N   UNL     1      26.124   0.493  53.447  0.00  0.00    +0.000 N 
ATOM     18  C   UNL     1      26.341  -0.350  52.260  0.00  0.00    +0.000 C 
ATOM     19  C   UNL     1      27.273  -1.519  52.583  0.00  0.00    +0.000 C 
ATOM     20  C   UNL     1      28.614  -1.029  53.142  0.00  0.00    +0.000 C 
ATOM     21  C   UNL     1      28.370  -0.066  54.309  0.00  0.00    +0.000 C 
ATOM     22  C   UNL     1      27.397   1.050  53.921  0.00  0.00    +0.000 C 
ATOM     23  H   UNL     1      25.724  -0.102  54.172  0.00  0.00    +0.000 HD
BRANCH  20  24
ATOM     24  C   UNL     1      29.511  -2.188  53.582  0.00  0.00    +0.000 C 
BRANCH  24  25
ATOM     25  O   UNL     1      28.811  -3.423  53.517  0.00  0.00    +0.000 OA
ATOM     26  H   UNL     1      29.019  -3.954  54.302  0.00  0.00    +0.000 HD
ENDBRANCH  24  25
ENDBRANCH  20  24
ENDBRANCH  16  17
ENDBRANCH  13  16
ENDBRANCH   4  10
BRANCH   1  27
ATOM     27  O   UNL     1      15.992   0.561  49.236  0.00  0.00    +0.000 OA
BRANCH  27  33
ATOM     28  C   UNL     1      14.707  -4.245  51.366  0.00  0.00    +0.000 C 
ATOM     29  O   UNL     1      14.847  -5.229  50.641  0.00  0.00    +0.000 OA
ATOM     30  N   UNL     1      14.474  -2.971  50.870  0.00  0.00    +0.000 N 
ATOM     31  C   UNL     1      14.358  -2.803  49.421  0.00  0.00    +0.000 C 
ATOM     32  C   UNL     1      15.276  -1.689  48.938  0.00  0.00    +0.000 C 
ATOM     33  C   UNL     1      15.004  -0.378  49.690  0.00  0.00    +0.000 C 
ATOM     34  C   UNL     1      15.097  -0.627  51.207  0.00  0.00    +0.000 C 
ATOM     35  C   UNL     1      14.183  -1.765  51.640  0.00  0.00    +0.000 C 
BRANCH  28  37
ATOM     36  C   UNL     1      15.993  -4.496  53.436  0.00  0.00    +0.000 C 
ATOM     37  C   UNL     1      14.794  -4.413  52.846  0.00  0.00    +0.000 C 
ENDBRANCH  28  37
ENDBRANCH  27  33
ENDBRANCH   1  27
TORSDOF 8
ENDMDL
MODEL 4
REMARK VINA RESULT:    -8.916      5.527      8.157
REMARK INTER + INTRA:         -12.269
REMARK INTER:                 -11.963
REMARK INTRA:                  -0.306
REMARK UNBOUND:                 0.556
REMARK  Name = 
REMARK  8 active torsions:
REMARK  status: ('A' for Active; 'I' for Inactive)
REMARK    1  A    between atoms: C_2  and  C_3
REMARK    2  A    between atoms: C_8  and  O_9
REMARK    3  A    between atoms: O_9  and  C_10
REMARK    4  A    between atoms: N_13  and  C_14
REMARK    5  A    between atoms: C_17  and  C_18
REMARK    6  A    between atoms: C_18  and  N_19
REMARK    7  A    between atoms: C_22  and  C_23
REMARK    8  A    between atoms: C_23  and  O_24
REMARK                            x       y       z     vdW  Elec       q    Type
REMARK                         _______ _______ _______ _____ _____    ______ ____
ROOT
ATOM      1  C   UNL     1      22.039   2.589  51.384  0.00  0.00    +0.000 A 
ATOM      2  N   UNL     1      21.369   1.511  50.917  0.00  0.00    +0.000 NA
ATOM      3  C   UNL     1      20.040   1.507  51.092  0.00  0.00    +0.000 A 
ATOM      4  N   UNL     1      19.338   0.436  50.553  0.00  0.00    +0.000 N 
ATOM      5  N   UNL     1      19.371   2.498  51.704  0.00  0.00    +0.000 NA
ATOM      6  C   UNL     1      20.076   3.583  52.087  0.00  0.00    +0.000 A 
ATOM      7  C   UNL     1      21.430   3.699  51.930  0.00  0.00    +0.000 A 
ATOM      8 CL   UNL     1      22.258   5.115  52.418  0.00  0.00    +0.000 Cl
ATOM      9  H   UNL     1      19.728   0.032  49.744  0.00  0.00    +0.000 HD
ENDROOT
BRANCH   4  10
ATOM     10  C   UNL     1      18.148  -0.142  51.012  0.00  0.00    +0.000 A 
ATOM     11  C   UNL     1      17.075  -0.280  50.127  0.00  0.00    +0.000 A 
ATOM     12  C   UNL     1      15.874  -0.858  50.545  0.00  0.00    +0.000 A 
ATOM     13  C   UNL     1      15.735  -1.342  51.853  0.00  0.00    +0.000 A 
ATOM     14  C   UNL     1      16.801  -1.189  52.746  0.00  0.00    +0.000 A 
ATOM     15  C   UNL     1      17.991  -0.589  52.330  0.00  0.00    +0.000 A 
BRANCH  13  16
ATOM     16  C   UNL     1      14.473  -2.059  52.280  0.00  0.00    +0.000 C 
BRANCH  16  17
ATOM     17  N   UNL     1      14.723  -3.118  53.275  0.00  0.00    +0.000 N 
ATOM     18  C   UNL     1      13.492  -3.850  53.618  0.00  0.00    +0.000 C 
ATOM     19  C   UNL     1      13.760  -4.890  54.707  0.00  0.00    +0.000 C 
ATOM     20  C   UNL     1      14.864  -5.868  54.289  0.00  0.00    +0.000 C 
ATOM     21  C   UNL     1      16.103  -5.090  53.832  0.00  0.00    +0.000 C 
ATOM     22  C   UNL     1      15.747  -4.043  52.773  0.00  0.00    +0.000 C 
ATOM     23  H   UNL     1      15.059  -2.673  54.130  0.00  0.00    +0.000 HD
BRANCH  20  24
ATOM     24  C   UNL     1      15.227  -6.839  55.414  0.00  0.00    +0.000 C 
BRANCH  24  25
ATOM     25  O   UNL     1      14.787  -8.156  55.109  0.00  0.00    +0.000 OA
ATOM     26  H   UNL     1      14.736  -8.678  55.925  0.00  0.00    +0.000 HD
ENDBRANCH  24  25
ENDBRANCH  20  24
ENDBRANCH  16  17
ENDBRANCH  13  16
ENDBRANCH   4  10
BRANCH   1  27
ATOM     27  O   UNL     1      23.419   2.569  51.344  0.00  0.00    +0.000 OA
BRANCH  27  33
ATOM     28  C   UNL     1      27.280  -0.525  53.537  0.00  0.00    +0.000 C 
ATOM     29  O   UNL     1      27.166  -1.742  53.392  0.00  0.00    +0.000 OA
ATOM     30  N   UNL     1      26.196   0.339  53.529  0.00  0.00    +0.000 N 
ATOM     31  C   UNL     1      24.858  -0.231  53.373  0.00  0.00    +0.000 C 
ATOM     32  C   UNL     1      24.100   0.480  52.260  0.00  0.00    +0.000 C 
ATOM     33  C   UNL     1      24.052   1.996  52.500  0.00  0.00    +0.000 C 
ATOM     34  C   UNL     1      25.483   2.530  52.699  0.00  0.00    +0.000 C 
ATOM     35  C   UNL     1      26.210   1.773  53.803  0.00  0.00    +0.000 C 
BRANCH  28  37
ATOM     36  C   UNL     1      29.723  -0.708  53.565  0.00  0.00    +0.000 C 
ATOM     37  C   UNL     1      28.639   0.061  53.726  0.00  0.00    +0.000 C 
ENDBRANCH  28  37
ENDBRANCH  27  33
ENDBRANCH   1  27
TORSDOF 8
ENDMDL
MODEL 5
REMARK VINA RESULT:    -8.736      4.083      7.154
REMARK INTER + INTRA:         -12.010
REMARK INTER:                 -11.500
REMARK INTRA:                  -0.509
REMARK UNBOUND:                 0.556
REMARK  Name = 
REMARK  8 active torsions:
REMARK  status: ('A' for Active; 'I' for Inactive)
REMARK    1  A    between atoms: C_2  and  C_3
REMARK    2  A    between atoms: C_8  and  O_9
REMARK    3  A    between atoms: O_9  and  C_10
REMARK    4  A    between atoms: N_13  and  C_14
REMARK    5  A    between atoms: C_17  and  C_18
REMARK    6  A    between atoms: C_18  and  N_19
REMARK    7  A    between atoms: C_22  and  C_23
REMARK    8  A    between atoms: C_23  and  O_24
REMARK                            x       y       z     vdW  Elec       q    Type
REMARK                         _______ _______ _______ _____ _____    ______ ____
ROOT
ATOM      1  C   UNL     1      23.890   1.139  53.111  0.00  0.00    +0.000 A 
ATOM      2  N   UNL     1      22.573   1.440  53.186  0.00  0.00    +0.000 NA
ATOM      3  C   UNL     1      21.728   0.407  53.313  0.00  0.00    +0.000 A 
ATOM      4  N   UNL     1      20.381   0.712  53.461  0.00  0.00    +0.000 N 
ATOM      5  N   UNL     1      22.127  -0.875  53.357  0.00  0.00    +0.000 NA
ATOM      6  C   UNL     1      23.453  -1.117  53.352  0.00  0.00    +0.000 A 
ATOM      7  C   UNL     1      24.400  -0.134  53.252  0.00  0.00    +0.000 A 
ATOM      8 CL   UNL     1      26.070  -0.510  53.275  0.00  0.00    +0.000 Cl
ATOM      9  H   UNL     1      20.181   1.568  53.907  0.00  0.00    +0.000 HD
ENDROOT
BRANCH   4  10
ATOM     10  C   UNL     1      19.270  -0.040  53.058  0.00  0.00    +0.000 A 
ATOM     11  C   UNL     1      18.884  -1.145  53.823  0.00  0.00    +0.000 A 
ATOM     12  C   UNL     1      17.778  -1.915  53.458  0.00  0.00    +0.000 A 
ATOM     13  C   UNL     1      17.013  -1.574  52.335  0.00  0.00    +0.000 A 
ATOM     14  C   UNL     1      17.407  -0.480  51.557  0.00  0.00    +0.000 A 
ATOM     15  C   UNL     1      18.527   0.273  51.913  0.00  0.00    +0.000 A 
BRANCH  13  16
ATOM     16  C   UNL     1      15.757  -2.345  51.994  0.00  0.00    +0.000 C 
BRANCH  16  17
ATOM     17  N   UNL     1      15.357  -3.289  53.055  0.00  0.00    +0.000 N 
ATOM     18  C   UNL     1      13.907  -3.541  53.045  0.00  0.00    +0.000 C 
ATOM     19  C   UNL     1      13.504  -4.460  54.200  0.00  0.00    +0.000 C 
ATOM     20  C   UNL     1      14.276  -5.784  54.158  0.00  0.00    +0.000 C 
ATOM     21  C   UNL     1      15.781  -5.506  54.058  0.00  0.00    +0.000 C 
ATOM     22  C   UNL     1      16.098  -4.548  52.907  0.00  0.00    +0.000 C 
ATOM     23  H   UNL     1      15.585  -2.865  53.954  0.00  0.00    +0.000 HD
BRANCH  20  24
ATOM     24  C   UNL     1      13.974  -6.664  55.372  0.00  0.00    +0.000 C 
BRANCH  24  25
ATOM     25  O   UNL     1      12.574  -6.749  55.600  0.00  0.00    +0.000 OA
ATOM     26  H   UNL     1      12.164  -7.281  54.899  0.00  0.00    +0.000 HD
ENDBRANCH  24  25
ENDBRANCH  20  24
ENDBRANCH  16  17
ENDBRANCH  13  16
ENDBRANCH   4  10
BRANCH   1  27
ATOM     27  O   UNL     1      24.779   2.161  52.844  0.00  0.00    +0.000 OA
BRANCH  27  33
ATOM     28  C   UNL     1      26.552   5.478  48.953  0.00  0.00    +0.000 C 
ATOM     29  O   UNL     1      25.922   6.522  48.782  0.00  0.00    +0.000 OA
ATOM     30  N   UNL     1      25.980   4.331  49.482  0.00  0.00    +0.000 N 
ATOM     31  C   UNL     1      24.557   4.360  49.821  0.00  0.00    +0.000 C 
ATOM     32  C   UNL     1      24.337   3.867  51.244  0.00  0.00    +0.000 C 
ATOM     33  C   UNL     1      24.946   2.473  51.451  0.00  0.00    +0.000 C 
ATOM     34  C   UNL     1      26.430   2.494  51.038  0.00  0.00    +0.000 C 
ATOM     35  C   UNL     1      26.604   3.018  49.618  0.00  0.00    +0.000 C 
BRANCH  28  37
ATOM     36  C   UNL     1      28.543   6.452  47.910  0.00  0.00    +0.000 C 
ATOM     37  C   UNL     1      27.996   5.431  48.582  0.00  0.00    +0.000 C 
ENDBRANCH  28  37
ENDBRANCH  27  33
ENDBRANCH   1  27
TORSDOF 8
ENDMDL
MODEL 6
REMARK VINA RESULT:    -8.626      5.985      8.412
REMARK INTER + INTRA:         -11.852
REMARK INTER:                 -11.527
REMARK INTRA:                  -0.325
REMARK UNBOUND:                 0.556
REMARK  Name = 
REMARK  8 active torsions:
REMARK  status: ('A' for Active; 'I' for Inactive)
REMARK    1  A    between atoms: C_2  and  C_3
REMARK    2  A    between atoms: C_8  and  O_9
REMARK    3  A    between atoms: O_9  and  C_10
REMARK    4  A    between atoms: N_13  and  C_14
REMARK    5  A    between atoms: C_17  and  C_18
REMARK    6  A    between atoms: C_18  and  N_19
REMARK    7  A    between atoms: C_22  and  C_23
REMARK    8  A    between atoms: C_23  and  O_24
REMARK                            x       y       z     vdW  Elec       q    Type
REMARK                         _______ _______ _______ _____ _____    ______ ____
ROOT
ATOM      1  C   UNL     1      22.809  -0.140  53.267  0.00  0.00    +0.000 A 
ATOM      2  N   UNL     1      22.343   0.685  52.302  0.00  0.00    +0.000 NA
ATOM      3  C   UNL     1      21.117   1.193  52.487  0.00  0.00    +0.000 A 
ATOM      4  N   UNL     1      20.660   2.096  51.535  0.00  0.00    +0.000 N 
ATOM      5  N   UNL     1      20.352   0.913  53.556  0.00  0.00    +0.000 NA
ATOM      6  C   UNL     1      20.891   0.144  54.523  0.00  0.00    +0.000 A 
ATOM      7  C   UNL     1      22.143  -0.401  54.446  0.00  0.00    +0.000 A 
ATOM      8 CL   UNL     1      22.774  -1.351  55.723  0.00  0.00    +0.000 Cl
ATOM      9  H   UNL     1      21.353   2.636  51.089  0.00  0.00    +0.000 HD
ENDROOT
BRANCH   4  10
ATOM     10  C   UNL     1      19.342   2.337  51.127  0.00  0.00    +0.000 A 
ATOM     11  C   UNL     1      18.720   3.529  51.510  0.00  0.00    +0.000 A 
ATOM     12  C   UNL     1      17.410   3.809  51.117  0.00  0.00    +0.000 A 
ATOM     13  C   UNL     1      16.705   2.914  50.302  0.00  0.00    +0.000 A 
ATOM     14  C   UNL     1      17.317   1.711  49.933  0.00  0.00    +0.000 A 
ATOM     15  C   UNL     1      18.619   1.426  50.347  0.00  0.00    +0.000 A 
BRANCH  13  16
ATOM     16  C   UNL     1      15.322   3.259  49.792  0.00  0.00    +0.000 C 
BRANCH  16  17
ATOM     17  N   UNL     1      14.256   2.935  50.758  0.00  0.00    +0.000 N 
ATOM     18  C   UNL     1      14.506   1.655  51.441  0.00  0.00    +0.000 C 
ATOM     19  C   UNL     1      13.352   1.302  52.379  0.00  0.00    +0.000 C 
ATOM     20  C   UNL     1      13.102   2.414  53.405  0.00  0.00    +0.000 C 
ATOM     21  C   UNL     1      12.951   3.759  52.686  0.00  0.00    +0.000 C 
ATOM     22  C   UNL     1      14.123   4.022  51.736  0.00  0.00    +0.000 C 
ATOM     23  H   UNL     1      13.383   2.837  50.240  0.00  0.00    +0.000 HD
BRANCH  20  24
ATOM     24  C   UNL     1      11.874   2.130  54.273  0.00  0.00    +0.000 C 
BRANCH  24  25
ATOM     25  O   UNL     1      12.208   2.179  55.653  0.00  0.00    +0.000 OA
ATOM     26  H   UNL     1      13.170   2.256  55.751  0.00  0.00    +0.000 HD
ENDBRANCH  24  25
ENDBRANCH  20  24
ENDBRANCH  16  17
ENDBRANCH  13  16
ENDBRANCH   4  10
BRANCH   1  27
ATOM     27  O   UNL     1      24.008  -0.788  53.050  0.00  0.00    +0.000 OA
BRANCH  27  33
ATOM     28  C   UNL     1      28.910   1.323  53.945  0.00  0.00    +0.000 C 
ATOM     29  O   UNL     1      28.995   2.176  54.828  0.00  0.00    +0.000 OA
ATOM     30  N   UNL     1      27.740   1.081  53.242  0.00  0.00    +0.000 N 
ATOM     31  C   UNL     1      26.567   1.901  53.547  0.00  0.00    +0.000 C 
ATOM     32  C   UNL     1      25.355   1.019  53.814  0.00  0.00    +0.000 C 
ATOM     33  C   UNL     1      25.094   0.061  52.644  0.00  0.00    +0.000 C 
ATOM     34  C   UNL     1      26.373  -0.741  52.342  0.00  0.00    +0.000 C 
ATOM     35  C   UNL     1      27.564   0.179  52.107  0.00  0.00    +0.000 C 
BRANCH  28  37
ATOM     36  C   UNL     1      30.098  -0.817  53.832  0.00  0.00    +0.000 C 
ATOM     37  C   UNL     1      30.110   0.503  53.607  0.00  0.00    +0.000 C 
ENDBRANCH  28  37
ENDBRANCH  27  33
ENDBRANCH   1  27
TORSDOF 8
ENDMDL
MODEL 7
REMARK VINA RESULT:    -8.614      4.832      8.374
REMARK INTER + INTRA:         -11.834
REMARK INTER:                 -11.422
REMARK INTRA:                  -0.413
REMARK UNBOUND:                 0.556
REMARK  Name = 
REMARK  8 active torsions:
REMARK  status: ('A' for Active; 'I' for Inactive)
REMARK    1  A    between atoms: C_2  and  C_3
REMARK    2  A    between atoms: C_8  and  O_9
REMARK    3  A    between atoms: O_9  and  C_10
REMARK    4  A    between atoms: N_13  and  C_14
REMARK    5  A    between atoms: C_17  and  C_18
REMARK    6  A    between atoms: C_18  and  N_19
REMARK    7  A    between atoms: C_22  and  C_23
REMARK    8  A    between atoms: C_23  and  O_24
REMARK                            x       y       z     vdW  Elec       q    Type
REMARK                         _______ _______ _______ _____ _____    ______ ____
ROOT
ATOM      1  C   UNL     1      22.399   0.345  52.397  0.00  0.00    +0.000 A 
ATOM      2  N   UNL     1      21.079   0.381  52.106  0.00  0.00    +0.000 NA
ATOM      3  C   UNL     1      20.275  -0.374  52.869  0.00  0.00    +0.000 A 
ATOM      4  N   UNL     1      18.911  -0.288  52.622  0.00  0.00    +0.000 N 
ATOM      5  N   UNL     1      20.720  -1.149  53.872  0.00  0.00    +0.000 NA
ATOM      6  C   UNL     1      22.035  -1.094  54.167  0.00  0.00    +0.000 A 
ATOM      7  C   UNL     1      22.935  -0.335  53.470  0.00  0.00    +0.000 A 
ATOM      8 CL   UNL     1      24.588  -0.294  53.914  0.00  0.00    +0.000 Cl
ATOM      9  H   UNL     1      18.591   0.579  52.279  0.00  0.00    +0.000 HD
ENDROOT
BRANCH   4  10
ATOM     10  C   UNL     1      17.932  -1.275  52.796  0.00  0.00    +0.000 A 
ATOM     11  C   UNL     1      16.675  -1.094  52.211  0.00  0.00    +0.000 A 
ATOM     12  C   UNL     1      15.675  -2.058  52.356  0.00  0.00    +0.000 A 
ATOM     13  C   UNL     1      15.925  -3.242  53.064  0.00  0.00    +0.000 A 
ATOM     14  C   UNL     1      17.176  -3.417  53.666  0.00  0.00    +0.000 A 
ATOM     15  C   UNL     1      18.164  -2.439  53.537  0.00  0.00    +0.000 A 
BRANCH  13  16
ATOM     16  C   UNL     1      14.878  -4.332  53.137  0.00  0.00    +0.000 C 
BRANCH  16  17
ATOM     17  N   UNL     1      14.602  -4.770  54.518  0.00  0.00    +0.000 N 
ATOM     18  C   UNL     1      13.180  -4.618  54.867  0.00  0.00    +0.000 C 
ATOM     19  C   UNL     1      12.931  -5.005  56.326  0.00  0.00    +0.000 C 
ATOM     20  C   UNL     1      13.401  -6.435  56.615  0.00  0.00    +0.000 C 
ATOM     21  C   UNL     1      14.851  -6.610  56.148  0.00  0.00    +0.000 C 
ATOM     22  C   UNL     1      15.028  -6.165  54.694  0.00  0.00    +0.000 C 
ATOM     23  H   UNL     1      15.135  -4.172  55.150  0.00  0.00    +0.000 HD
BRANCH  20  24
ATOM     24  C   UNL     1      13.270  -6.794  58.097  0.00  0.00    +0.000 C 
BRANCH  24  25
ATOM     25  O   UNL     1      14.527  -7.177  58.638  0.00  0.00    +0.000 OA
ATOM     26  H   UNL     1      14.403  -7.918  59.252  0.00  0.00    +0.000 HD
ENDBRANCH  24  25
ENDBRANCH  20  24
ENDBRANCH  16  17
ENDBRANCH  13  16
ENDBRANCH   4  10
BRANCH   1  27
ATOM     27  O   UNL     1      23.272   1.000  51.552  0.00  0.00    +0.000 OA
BRANCH  27  33
ATOM     28  C   UNL     1      24.576   6.141  50.475  0.00  0.00    +0.000 C 
ATOM     29  O   UNL     1      24.920   6.839  51.429  0.00  0.00    +0.000 OA
ATOM     30  N   UNL     1      23.739   5.043  50.608  0.00  0.00    +0.000 N 
ATOM     31  C   UNL     1      23.222   4.725  51.939  0.00  0.00    +0.000 C 
ATOM     32  C   UNL     1      23.471   3.260  52.272  0.00  0.00    +0.000 C 
ATOM     33  C   UNL     1      22.884   2.337  51.195  0.00  0.00    +0.000 C 
ATOM     34  C   UNL     1      23.430   2.747  49.814  0.00  0.00    +0.000 C 
ATOM     35  C   UNL     1      23.183   4.224  49.535  0.00  0.00    +0.000 C 
BRANCH  28  37
ATOM     36  C   UNL     1      26.291   6.067  48.727  0.00  0.00    +0.000 C 
ATOM     37  C   UNL     1      25.075   6.477  49.110  0.00  0.00    +0.000 C 
ENDBRANCH  28  37
ENDBRANCH  27  33
ENDBRANCH   1  27
TORSDOF 8
ENDMDL
MODEL 8
REMARK VINA RESULT:    -8.435      2.853      9.975
REMARK INTER + INTRA:         -11.577
REMARK INTER:                 -11.093
REMARK INTRA:                  -0.484
REMARK UNBOUND:                 0.556
REMARK  Name = 
REMARK  8 active torsions:
REMARK  status: ('A' for Active; 'I' for Inactive)
REMARK    1  A    between atoms: C_2  and  C_3
REMARK    2  A    between atoms: C_8  and  O_9
REMARK    3  A    between atoms: O_9  and  C_10
REMARK    4  A    between atoms: N_13  and  C_14
REMARK    5  A    between atoms: C_17  and  C_18
REMARK    6  A    between atoms: C_18  and  N_19
REMARK    7  A    between atoms: C_22  and  C_23
REMARK    8  A    between atoms: C_23  and  O_24
REMARK                            x       y       z     vdW  Elec       q    Type
REMARK                         _______ _______ _______ _____ _____    ______ ____
ROOT
ATOM      1  C   UNL     1      21.808   2.643  51.256  0.00  0.00    +0.000 A 
ATOM      2  N   UNL     1      22.038   3.927  51.614  0.00  0.00    +0.000 NA
ATOM      3  C   UNL     1      22.447   4.757  50.645  0.00  0.00    +0.000 A 
ATOM      4  N   UNL     1      22.617   6.091  50.991  0.00  0.00    +0.000 N 
ATOM      5  N   UNL     1      22.641   4.371  49.373  0.00  0.00    +0.000 NA
ATOM      6  C   UNL     1      22.329   3.099  49.052  0.00  0.00    +0.000 A 
ATOM      7  C   UNL     1      21.878   2.180  49.959  0.00  0.00    +0.000 A 
ATOM      8 CL   UNL     1      21.477   0.586  49.479  0.00  0.00    +0.000 Cl
ATOM      9  H   UNL     1      22.033   6.426  51.709  0.00  0.00    +0.000 HD
ENDROOT
BRANCH   4  10
ATOM     10  C   UNL     1      23.514   7.022  50.449  0.00  0.00    +0.000 A 
ATOM     11  C   UNL     1      24.864   6.951  50.805  0.00  0.00    +0.000 A 
ATOM     12  C   UNL     1      25.789   7.856  50.281  0.00  0.00    +0.000 A 
ATOM     13  C   UNL     1      25.385   8.834  49.362  0.00  0.00    +0.000 A 
ATOM     14  C   UNL     1      24.032   8.920  49.018  0.00  0.00    +0.000 A 
ATOM     15  C   UNL     1      23.107   8.027  49.562  0.00  0.00    +0.000 A 
BRANCH  13  16
ATOM     16  C   UNL     1      26.401   9.751  48.716  0.00  0.00    +0.000 C 
BRANCH  16  17
ATOM     17  N   UNL     1      27.765   9.191  48.720  0.00  0.00    +0.000 N 
ATOM     18  C   UNL     1      28.175   8.735  47.381  0.00  0.00    +0.000 C 
ATOM     19  C   UNL     1      29.560   8.088  47.424  0.00  0.00    +0.000 C 
ATOM     20  C   UNL     1      30.608   9.044  48.006  0.00  0.00    +0.000 C 
ATOM     21  C   UNL     1      30.119   9.595  49.351  0.00  0.00    +0.000 C 
ATOM     22  C   UNL     1      28.712  10.188  49.235  0.00  0.00    +0.000 C 
ATOM     23  H   UNL     1      27.767   8.374  49.332  0.00  0.00    +0.000 HD
BRANCH  20  24
ATOM     24  C   UNL     1      31.972   8.372  48.168  0.00  0.00    +0.000 C 
BRANCH  24  25
ATOM     25  O   UNL     1      31.848   7.133  48.853  0.00  0.00    +0.000 OA
ATOM     26  H   UNL     1      32.590   7.029  49.471  0.00  0.00    +0.000 HD
ENDBRANCH  24  25
ENDBRANCH  20  24
ENDBRANCH  16  17
ENDBRANCH  13  16
ENDBRANCH   4  10
BRANCH   1  27
ATOM     27  O   UNL     1      21.517   1.729  52.249  0.00  0.00    +0.000 OA
BRANCH  27  33
ATOM     28  C   UNL     1      26.343  -0.545  53.154  0.00  0.00    +0.000 C 
ATOM     29  O   UNL     1      26.376  -1.774  53.209  0.00  0.00    +0.000 OA
ATOM     30  N   UNL     1      25.208   0.191  53.457  0.00  0.00    +0.000 N 
ATOM     31  C   UNL     1      24.011  -0.529  53.892  0.00  0.00    +0.000 C 
ATOM     32  C   UNL     1      22.801  -0.095  53.076  0.00  0.00    +0.000 C 
ATOM     33  C   UNL     1      22.607   1.426  53.135  0.00  0.00    +0.000 C 
ATOM     34  C   UNL     1      23.909   2.128  52.710  0.00  0.00    +0.000 C 
ATOM     35  C   UNL     1      25.096   1.645  53.533  0.00  0.00    +0.000 C 
BRANCH  28  37
ATOM     36  C   UNL     1      28.624   0.249  53.562  0.00  0.00    +0.000 C 
ATOM     37  C   UNL     1      27.568   0.198  52.740  0.00  0.00    +0.000 C 
ENDBRANCH  28  37
ENDBRANCH  27  33
ENDBRANCH   1  27
TORSDOF 8
ENDMDL
MODEL 9
REMARK VINA RESULT:    -8.240      3.581      5.216
REMARK INTER + INTRA:         -11.296
REMARK INTER:                 -10.893
REMARK INTRA:                  -0.403
REMARK UNBOUND:                 0.556
REMARK  Name = 
REMARK  8 active torsions:
REMARK  status: ('A' for Active; 'I' for Inactive)
REMARK    1  A    between atoms: C_2  and  C_3
REMARK    2  A    between atoms: C_8  and  O_9
REMARK    3  A    between atoms: O_9  and  C_10
REMARK    4  A    between atoms: N_13  and  C_14
REMARK    5  A    between atoms: C_17  and  C_18
REMARK    6  A    between atoms: C_18  and  N_19
REMARK    7  A    between atoms: C_22  and  C_23
REMARK    8  A    between atoms: C_23  and  O_24
REMARK                            x       y       z     vdW  Elec       q    Type
REMARK                         _______ _______ _______ _____ _____    ______ ____
ROOT
ATOM      1  C   UNL     1      21.386   6.878  46.907  0.00  0.00    +0.000 A 
ATOM      2  N   UNL     1      22.138   5.757  46.993  0.00  0.00    +0.000 NA
ATOM      3  C   UNL     1      21.907   4.957  48.043  0.00  0.00    +0.000 A 
ATOM      4  N   UNL     1      22.626   3.770  48.100  0.00  0.00    +0.000 N 
ATOM      5  N   UNL     1      20.992   5.224  48.990  0.00  0.00    +0.000 NA
ATOM      6  C   UNL     1      20.219   6.316  48.821  0.00  0.00    +0.000 A 
ATOM      7  C   UNL     1      20.354   7.182  47.770  0.00  0.00    +0.000 A 
ATOM      8 CL   UNL     1      19.322   8.538  47.604  0.00  0.00    +0.000 Cl
ATOM      9  H   UNL     1      22.878   3.380  47.232  0.00  0.00    +0.000 HD
ENDROOT
BRANCH   4  10
ATOM     10  C   UNL     1      23.040   3.058  49.233  0.00  0.00    +0.000 A 
ATOM     11  C   UNL     1      24.263   3.381  49.829  0.00  0.00    +0.000 A 
ATOM     12  C   UNL     1      24.706   2.698  50.964  0.00  0.00    +0.000 A 
ATOM     13  C   UNL     1      23.917   1.697  51.546  0.00  0.00    +0.000 A 
ATOM     14  C   UNL     1      22.701   1.359  50.941  0.00  0.00    +0.000 A 
ATOM     15  C   UNL     1      22.273   2.029  49.794  0.00  0.00    +0.000 A 
BRANCH  13  16
ATOM     16  C   UNL     1      24.347   1.026  52.832  0.00  0.00    +0.000 C 
BRANCH  16  17
ATOM     17  N   UNL     1      25.785   0.701  52.856  0.00  0.00    +0.000 N 
ATOM     18  C   UNL     1      26.491   1.418  53.932  0.00  0.00    +0.000 C 
ATOM     19  C   UNL     1      27.991   1.126  53.890  0.00  0.00    +0.000 C 
ATOM     20  C   UNL     1      28.273  -0.378  53.977  0.00  0.00    +0.000 C 
ATOM     21  C   UNL     1      27.449  -1.124  52.921  0.00  0.00    +0.000 C 
ATOM     22  C   UNL     1      25.967  -0.749  53.001  0.00  0.00    +0.000 C 
ATOM     23  H   UNL     1      26.191   1.006  51.972  0.00  0.00    +0.000 HD
BRANCH  20  24
ATOM     24  C   UNL     1      29.762  -0.694  53.816  0.00  0.00    +0.000 C 
BRANCH  24  25
ATOM     25  O   UNL     1      30.480   0.455  53.389  0.00  0.00    +0.000 OA
ATOM     26  H   UNL     1      29.876   1.066  52.938  0.00  0.00    +0.000 HD
ENDBRANCH  24  25
ENDBRANCH  20  24
ENDBRANCH  16  17
ENDBRANCH  13  16
ENDBRANCH   4  10
BRANCH   1  27
ATOM     27  O   UNL     1      21.685   7.792  45.918  0.00  0.00    +0.000 OA
BRANCH  27  33
ATOM     28  C   UNL     1      26.604   8.183  48.141  0.00  0.00    +0.000 C 
ATOM     29  O   UNL     1      26.651   8.426  49.347  0.00  0.00    +0.000 OA
ATOM     30  N   UNL     1      25.538   8.561  47.338  0.00  0.00    +0.000 N 
ATOM     31  C   UNL     1      24.440   9.309  47.952  0.00  0.00    +0.000 C 
ATOM     32  C   UNL     1      23.103   8.660  47.621  0.00  0.00    +0.000 C 
ATOM     33  C   UNL     1      22.917   8.510  46.105  0.00  0.00    +0.000 C 
ATOM     34  C   UNL     1      24.121   7.755  45.511  0.00  0.00    +0.000 C 
ATOM     35  C   UNL     1      25.436   8.424  45.888  0.00  0.00    +0.000 C 
BRANCH  28  37
ATOM     36  C   UNL     1      28.280   6.397  48.127  0.00  0.00    +0.000 C 
ATOM     37  C   UNL     1      27.733   7.448  47.503  0.00  0.00    +0.000 C 
ENDBRANCH  28  37
ENDBRANCH  27  33
ENDBRANCH   1  27
TORSDOF 8
ENDMDL
