
     RDKit          3D

 77 80  0  0  0  0  0  0  0  0999 V2000
   -0.6747    4.8391    0.3752 C   0  0  0  0  0  0  0  0  0  0  0  0
   -1.6734    5.3804   -0.6467 C   0  0  0  0  0  0  0  0  0  0  0  0
   -3.0797    4.9316   -0.3451 C   0  0  0  0  0  0  0  0  0  0  0  0
   -3.5477    3.6789   -0.4768 C   0  0  0  0  0  0  0  0  0  0  0  0
   -2.7864    2.5236   -0.9967 C   0  0  0  0  0  0  0  0  0  0  0  0
   -1.8128    2.6932   -1.7823 O   0  0  0  0  0  0  0  0  0  0  0  0
   -3.1962    1.1955   -0.6378 N   0  0  0  0  0  0  0  0  0  0  0  0
   -2.3373    0.0424   -0.7198 C   0  0  0  0  0  0  0  0  0  0  0  0
   -0.9533    0.1640   -0.5036 C   0  0  0  0  0  0  0  0  0  0  0  0
   -0.1176   -0.9662   -0.5043 C   0  0  0  0  0  0  0  0  0  0  0  0
    1.3039   -0.8329   -0.3181 N   0  0  0  0  0  0  0  0  0  0  0  0
    1.9285    0.1401    0.5321 C   0  0  0  0  0  0  0  0  0  0  0  0
    1.2125    0.8180    1.4675 N   0  0  0  0  0  0  0  0  0  0  0  0
    1.8041    1.7344    2.2743 C   0  0  0  0  0  0  0  0  0  0  0  0
    3.1753    1.9854    2.1660 C   0  0  0  0  0  0  0  0  0  0  0  0
    3.7661    3.0132    2.9869 C   0  0  0  0  0  0  0  0  0  0  0  0
    4.2399    3.8396    3.6444 N   0  0  0  0  0  0  0  0  0  0  0  0
    3.9151    1.2537    1.2137 C   0  0  0  0  0  0  0  0  0  0  0  0
    5.3794    1.4013    1.0421 C   0  0  0  0  0  0  0  0  0  0  0  0
    6.3311    1.5772    2.0469 C   0  0  0  0  0  0  0  0  0  0  0  0
    7.5802    1.5428    1.5248 N   0  0  0  0  0  0  0  0  0  0  0  0
    8.8277    1.6032    2.2799 C   0  0  0  0  0  0  0  0  0  0  0  0
    7.4368    1.3153    0.2042 C   0  0  0  0  0  0  0  0  0  0  0  0
    8.4428    1.1430   -0.7524 C   0  0  0  0  0  0  0  0  0  0  0  0
    8.0553    0.8928   -2.0798 C   0  0  0  0  0  0  0  0  0  0  0  0
    6.6887    0.8182   -2.4238 C   0  0  0  0  0  0  0  0  0  0  0  0
    5.6958    0.9843   -1.4415 C   0  0  0  0  0  0  0  0  0  0  0  0
    6.1059    1.2271   -0.1274 C   0  0  0  0  0  0  0  0  0  0  0  0
    3.2642    0.3552    0.4273 N   0  0  0  0  0  0  0  0  0  0  0  0
   -0.6691   -2.2367   -0.7474 C   0  0  0  0  0  0  0  0  0  0  0  0
    0.1815   -3.3548   -0.7471 O   0  0  0  0  0  0  0  0  0  0  0  0
   -0.2544   -4.7014   -0.9010 C   0  0  0  0  0  0  0  0  0  0  0  0
   -2.0523   -2.3590   -0.9681 C   0  0  0  0  0  0  0  0  0  0  0  0
   -2.8873   -1.2349   -0.9427 C   0  0  0  0  0  0  0  0  0  0  0  0
   -4.2974   -1.3981   -1.1643 N   0  0  0  0  0  0  0  0  0  0  0  0
   -4.8680   -1.0084   -2.4550 C   0  0  0  0  0  0  0  0  0  0  0  0
   -5.1407   -1.9841   -0.1155 C   0  0  0  0  0  0  0  0  0  0  0  0
   -5.4821   -3.4469   -0.4328 C   0  0  0  0  0  0  0  0  0  0  0  0
   -6.4464   -3.9796    0.5550 N   0  0  0  0  0  0  0  0  0  0  0  0
   -7.2286   -5.0781   -0.0373 C   0  0  0  0  0  0  0  0  0  0  0  0
   -5.7525   -4.4700    1.7599 C   0  0  0  0  0  0  0  0  0  0  0  0
    0.3364    5.2396    0.1527 H   0  0  0  0  0  0  0  0  0  0  0  0
   -0.9644    5.1599    1.3975 H   0  0  0  0  0  0  0  0  0  0  0  0
   -0.6273    3.7311    0.3446 H   0  0  0  0  0  0  0  0  0  0  0  0
   -1.6429    6.4903   -0.5950 H   0  0  0  0  0  0  0  0  0  0  0  0
   -1.3780    5.1020   -1.6793 H   0  0  0  0  0  0  0  0  0  0  0  0
   -3.7606    5.6840    0.0364 H   0  0  0  0  0  0  0  0  0  0  0  0
   -4.5607    3.4892   -0.1435 H   0  0  0  0  0  0  0  0  0  0  0  0
   -4.1689    1.0653   -0.2776 H   0  0  0  0  0  0  0  0  0  0  0  0
   -0.5251    1.1410   -0.3295 H   0  0  0  0  0  0  0  0  0  0  0  0
    1.9325   -1.5049   -0.8135 H   0  0  0  0  0  0  0  0  0  0  0  0
    1.2013    2.2703    2.9945 H   0  0  0  0  0  0  0  0  0  0  0  0
    6.1265    1.6644    3.1062 H   0  0  0  0  0  0  0  0  0  0  0  0
    8.6482    2.0186    3.2947 H   0  0  0  0  0  0  0  0  0  0  0  0
    9.5556    2.2622    1.7593 H   0  0  0  0  0  0  0  0  0  0  0  0
    9.2543    0.5824    2.3746 H   0  0  0  0  0  0  0  0  0  0  0  0
    9.4909    1.1935   -0.4873 H   0  0  0  0  0  0  0  0  0  0  0  0
    8.8106    0.7543   -2.8429 H   0  0  0  0  0  0  0  0  0  0  0  0
    6.4038    0.6292   -3.4506 H   0  0  0  0  0  0  0  0  0  0  0  0
    4.6496    0.9287   -1.7094 H   0  0  0  0  0  0  0  0  0  0  0  0
    0.6210   -5.3752   -0.8220 H   0  0  0  0  0  0  0  0  0  0  0  0
   -0.9752   -4.9617   -0.0989 H   0  0  0  0  0  0  0  0  0  0  0  0
   -0.7231   -4.8423   -1.8974 H   0  0  0  0  0  0  0  0  0  0  0  0
   -2.4869   -3.3260   -1.1706 H   0  0  0  0  0  0  0  0  0  0  0  0
   -4.3415   -1.5413   -3.2734 H   0  0  0  0  0  0  0  0  0  0  0  0
   -5.9485   -1.2607   -2.5040 H   0  0  0  0  0  0  0  0  0  0  0  0
   -4.7602    0.0845   -2.6021 H   0  0  0  0  0  0  0  0  0  0  0  0
   -4.6168   -1.9189    0.8619 H   0  0  0  0  0  0  0  0  0  0  0  0
   -6.0791   -1.3945   -0.0265 H   0  0  0  0  0  0  0  0  0  0  0  0
   -5.9202   -3.4733   -1.4561 H   0  0  0  0  0  0  0  0  0  0  0  0
   -4.5566   -4.0633   -0.4619 H   0  0  0  0  0  0  0  0  0  0  0  0
   -7.8321   -4.7005   -0.8912 H   0  0  0  0  0  0  0  0  0  0  0  0
   -6.5639   -5.8959   -0.3964 H   0  0  0  0  0  0  0  0  0  0  0  0
   -7.9443   -5.4893    0.7071 H   0  0  0  0  0  0  0  0  0  0  0  0
   -5.0729   -5.3172    1.5193 H   0  0  0  0  0  0  0  0  0  0  0  0
   -6.4947   -4.8092    2.5146 H   0  0  0  0  0  0  0  0  0  0  0  0
   -5.1632   -3.6589    2.2329 H   0  0  0  0  0  0  0  0  0  0  0  0
  1  2  1  0
  2  3  1  0
  3  4  2  0
  4  5  1  0
  5  6  2  0
  5  7  1  0
  7  8  1  0
  8  9  2  0
  9 10  1  0
 10 11  1  0
 11 12  1  0
 12 13  2  0
 13 14  1  0
 14 15  2  0
 15 16  1  0
 16 17  3  0
 15 18  1  0
 18 19  1  0
 19 20  2  0
 20 21  1  0
 21 22  1  0
 21 23  1  0
 23 24  2  0
 24 25  1  0
 25 26  2  0
 26 27  1  0
 27 28  2  0
 18 29  2  0
 10 30  2  0
 30 31  1  0
 31 32  1  0
 30 33  1  0
 33 34  2  0
 34 35  1  0
 35 36  1  0
 35 37  1  0
 37 38  1  0
 38 39  1  0
 39 40  1  0
 39 41  1  0
 34  8  1  0
 29 12  1  0
 28 19  1  0
 28 23  1  0
  1 42  1  0
  1 43  1  0
  1 44  1  0
  2 45  1  0
  2 46  1  0
  3 47  1  0
  4 48  1  0
  7 49  1  0
  9 50  1  0
 11 51  1  0
 14 52  1  0
 20 53  1  0
 22 54  1  0
 22 55  1  0
 22 56  1  0
 24 57  1  0
 25 58  1  0
 26 59  1  0
 27 60  1  0
 32 61  1  0
 32 62  1  0
 32 63  1  0
 33 64  1  0
 36 65  1  0
 36 66  1  0
 36 67  1  0
 37 68  1  0
 37 69  1  0
 38 70  1  0
 38 71  1  0
 40 72  1  0
 40 73  1  0
 40 74  1  0
 41 75  1  0
 41 76  1  0
 41 77  1  0
M  END
