
     RDKit          3D

 68 72  0  0  0  0  0  0  0  0999 V2000
    3.6834   -4.3728    0.8680 C   0  0  0  0  0  0  0  0  0  0  0  0
    2.1996   -4.2122    0.7430 C   0  0  0  0  0  0  0  0  0  0  0  0
    1.4061   -5.3254    0.7506 N   0  0  0  0  0  0  0  0  0  0  0  0
    0.0400   -5.2420    0.7046 C   0  0  0  0  0  0  0  0  0  0  0  0
   -0.5762   -4.0266    0.6615 N   0  0  0  0  0  0  0  0  0  0  0  0
    0.1991   -2.9156    0.6210 C   0  0  0  0  0  0  0  0  0  0  0  0
    1.5616   -2.9661    0.6346 C   0  0  0  0  0  0  0  0  0  0  0  0
    1.9553   -1.6265    0.6477 C   0  0  0  0  0  0  0  0  0  0  0  0
    3.3191   -1.0716    0.6966 C   0  0  0  0  0  0  0  0  0  0  0  0
    4.2975   -1.4723   -0.2256 C   0  0  0  0  0  0  0  0  0  0  0  0
    5.6017   -0.9754   -0.1328 C   0  0  0  0  0  0  0  0  0  0  0  0
    5.9204   -0.0193    0.8400 C   0  0  0  0  0  0  0  0  0  0  0  0
    7.2118    0.4977    0.9485 O   0  0  0  0  0  0  0  0  0  0  0  0
    7.6463    1.5579    0.1523 C   0  0  0  0  0  0  0  0  0  0  0  0
    7.6981    1.4453   -1.2484 C   0  0  0  0  0  0  0  0  0  0  0  0
    8.1110    2.5338   -2.0223 C   0  0  0  0  0  0  0  0  0  0  0  0
    8.4767    3.7371   -1.4013 C   0  0  0  0  0  0  0  0  0  0  0  0
    8.4420    3.8494   -0.0054 C   0  0  0  0  0  0  0  0  0  0  0  0
    8.0380    2.7537    0.7675 C   0  0  0  0  0  0  0  0  0  0  0  0
    4.9309    0.4223    1.7253 C   0  0  0  0  0  0  0  0  0  0  0  0
    3.6335   -0.0932    1.6499 C   0  0  0  0  0  0  0  0  0  0  0  0
    0.8434   -0.8473    0.6792 N   0  0  0  0  0  0  0  0  0  0  0  0
   -0.2207   -1.6420    0.6509 N   0  0  0  0  0  0  0  0  0  0  0  0
   -1.6013   -1.1763    0.7715 C   0  0  0  0  0  0  0  0  0  0  0  0
   -2.0158   -0.2978   -0.4261 C   0  0  1  0  0  0  0  0  0  0  0  0
   -1.8579   -1.0383   -1.7578 C   0  0  0  0  0  0  0  0  0  0  0  0
   -3.2189   -1.6694   -2.0230 C   0  0  0  0  0  0  0  0  0  0  0  0
   -4.2190   -0.7576   -1.3283 C   0  0  0  0  0  0  0  0  0  0  0  0
   -3.4458    0.0059   -0.3498 N   0  0  0  0  0  0  0  0  0  0  0  0
   -4.0461    0.8201    0.6802 C   0  0  0  0  0  0  0  0  0  0  0  0
   -3.3299    1.2894    1.6020 O   0  0  0  0  0  0  0  0  0  0  0  0
   -5.4647    1.0187    0.7388 N   0  0  0  0  0  0  0  0  0  0  0  0
   -6.1732    1.4349   -0.2655 C   0  0  0  0  0  0  0  0  0  0  0  0
   -7.6565    1.6240   -0.1197 C   0  0  0  0  0  0  0  0  0  0  0  0
   -7.9761    2.6723    0.8680 N   0  0  0  0  0  0  0  0  0  0  0  0
   -7.4589    3.9856    0.4416 C   0  0  0  0  0  0  0  0  0  0  0  0
   -9.4341    2.7510    1.0618 C   0  0  0  0  0  0  0  0  0  0  0  0
    4.1021   -3.5955    1.5449 H   0  0  0  0  0  0  0  0  0  0  0  0
    4.1584   -4.3198   -0.1355 H   0  0  0  0  0  0  0  0  0  0  0  0
    3.9234   -5.3624    1.3116 H   0  0  0  0  0  0  0  0  0  0  0  0
   -0.5571   -6.1446    0.7165 H   0  0  0  0  0  0  0  0  0  0  0  0
    4.0559   -2.1626   -1.0217 H   0  0  0  0  0  0  0  0  0  0  0  0
    6.3627   -1.3381   -0.8097 H   0  0  0  0  0  0  0  0  0  0  0  0
    7.4360    0.5142   -1.7373 H   0  0  0  0  0  0  0  0  0  0  0  0
    8.1583    2.4505   -3.1004 H   0  0  0  0  0  0  0  0  0  0  0  0
    8.7937    4.5825   -2.0008 H   0  0  0  0  0  0  0  0  0  0  0  0
    8.7228    4.7802    0.4706 H   0  0  0  0  0  0  0  0  0  0  0  0
    8.0047    2.8413    1.8486 H   0  0  0  0  0  0  0  0  0  0  0  0
    5.1677    1.1667    2.4768 H   0  0  0  0  0  0  0  0  0  0  0  0
    2.8784    0.2613    2.3444 H   0  0  0  0  0  0  0  0  0  0  0  0
   -1.6825   -0.5911    1.7113 H   0  0  0  0  0  0  0  0  0  0  0  0
   -2.2971   -2.0383    0.8534 H   0  0  0  0  0  0  0  0  0  0  0  0
   -1.4168    0.6429   -0.4386 H   0  0  0  0  0  0  0  0  0  0  0  0
   -1.0506   -1.8016   -1.7685 H   0  0  0  0  0  0  0  0  0  0  0  0
   -1.6503   -0.3018   -2.5590 H   0  0  0  0  0  0  0  0  0  0  0  0
   -3.4355   -1.7522   -3.1122 H   0  0  0  0  0  0  0  0  0  0  0  0
   -3.2536   -2.6864   -1.5684 H   0  0  0  0  0  0  0  0  0  0  0  0
   -4.6774   -0.0727   -2.0710 H   0  0  0  0  0  0  0  0  0  0  0  0
   -5.0082   -1.3601   -0.8187 H   0  0  0  0  0  0  0  0  0  0  0  0
   -5.6890    1.7676   -1.1663 H   0  0  0  0  0  0  0  0  0  0  0  0
   -8.0879    0.6508    0.1962 H   0  0  0  0  0  0  0  0  0  0  0  0
   -8.0907    1.8799   -1.1165 H   0  0  0  0  0  0  0  0  0  0  0  0
   -7.6027    4.1532   -0.6532 H   0  0  0  0  0  0  0  0  0  0  0  0
   -6.3748    4.0549    0.6938 H   0  0  0  0  0  0  0  0  0  0  0  0
   -7.9561    4.8248    0.9884 H   0  0  0  0  0  0  0  0  0  0  0  0
   -9.8514    1.7474    1.2826 H   0  0  0  0  0  0  0  0  0  0  0  0
   -9.9351    3.1572    0.1596 H   0  0  0  0  0  0  0  0  0  0  0  0
   -9.6673    3.4006    1.9290 H   0  0  0  0  0  0  0  0  0  0  0  0
  1  2  1  0
  2  3  2  0
  3  4  1  0
  4  5  2  0
  5  6  1  0
  6  7  2  0
  7  8  1  0
  8  9  1  0
  9 10  2  0
 10 11  1  0
 11 12  2  0
 12 13  1  0
 13 14  1  0
 14 15  2  0
 15 16  1  0
 16 17  2  0
 17 18  1  0
 18 19  2  0
 12 20  1  0
 20 21  2  0
  8 22  2  0
 22 23  1  0
 23 24  1  0
 24 25  1  0
 25 26  1  0
 26 27  1  0
 27 28  1  0
 28 29  1  0
 29 30  1  0
 30 31  2  0
 30 32  1  0
 32 33  2  0
 33 34  1  0
 34 35  1  0
 35 36  1  0
 35 37  1  0
  7  2  1  0
 21  9  1  0
 29 25  1  0
 23  6  1  0
 19 14  1  0
  1 38  1  0
  1 39  1  0
  1 40  1  0
  4 41  1  0
 10 42  1  0
 11 43  1  0
 15 44  1  0
 16 45  1  0
 17 46  1  0
 18 47  1  0
 19 48  1  0
 20 49  1  0
 21 50  1  0
 24 51  1  0
 24 52  1  0
 25 53  1  6
 26 54  1  0
 26 55  1  0
 27 56  1  0
 27 57  1  0
 28 58  1  0
 28 59  1  0
 33 60  1  0
 34 61  1  0
 34 62  1  0
 36 63  1  0
 36 64  1  0
 36 65  1  0
 37 66  1  0
 37 67  1  0
 37 68  1  0
M  END
