REMARK  Name = 
REMARK  10 active torsions:
REMARK  status: ('A' for Active; 'I' for Inactive)
REMARK    1  A    between atoms: C_2  and  C_3
REMARK    2  A    between atoms: N_5  and  C_6
REMARK    3  A    between atoms: C_10  and  C_11
REMARK    4  A    between atoms: C_22  and  O_23
REMARK    5  A    between atoms: O_23  and  C_24
REMARK    6  A    between atoms: C_25  and  O_26
REMARK    7  A    between atoms: O_26  and  C_27
REMARK    8  A    between atoms: C_27  and  C_28
REMARK    9  A    between atoms: C_28  and  C_29
REMARK   10  A    between atoms: C_29  and  N_30
REMARK                            x       y       z     vdW  Elec       q    Type
REMARK                         _______ _______ _______ _____ _____    ______ ____
ROOT
ATOM      1  C   UNL     1      -1.638   0.061  -1.257  0.00  0.00    +0.000 C 
ATOM      2  O   UNL     1      -0.605   0.025  -1.921  0.00  0.00    +0.000 OA
ATOM      3  N   UNL     1      -1.727  -0.254   0.110  0.00  0.00    +0.000 N 
ATOM      4  C   UNL     1      -2.686   0.481   0.905  0.00  0.00    +0.000 A 
ATOM      5  N   UNL     1      -2.354   1.765   1.170  0.00  0.00    +0.000 NA
ATOM      6  C   UNL     1      -2.666   2.203   2.390  0.00  0.00    +0.000 A 
ATOM      7  N   UNL     1      -3.239   1.477   3.352  0.00  0.00    +0.000 NA
ATOM      8  C   UNL     1      -3.641   0.241   3.009  0.00  0.00    +0.000 A 
ATOM      9  C   UNL     1      -4.055  -0.624   4.004  0.00  0.00    +0.000 A 
ATOM     10  C   UNL     1      -4.421  -1.953   3.733  0.00  0.00    +0.000 A 
ATOM     11  C   UNL     1      -4.752  -2.306   2.432  0.00  0.00    +0.000 A 
ATOM     12  C   UNL     1      -4.201  -1.501   1.427  0.00  0.00    +0.000 A 
ATOM     13  C   UNL     1      -3.531  -0.277   1.734  0.00  0.00    +0.000 A 
ENDROOT
BRANCH   3  14
ATOM     14  C   UNL     1      -0.466  -0.318   0.827  0.00  0.00    +0.000 A 
ATOM     15  C   UNL     1      -0.203  -1.412   1.657  0.00  0.00    +0.000 A 
ATOM     16  C   UNL     1       0.984  -1.472   2.392  0.00  0.00    +0.000 A 
ATOM     17  C   UNL     1       1.917  -0.432   2.317  0.00  0.00    +0.000 A 
ATOM     18  C   UNL     1       1.672   0.681   1.500  0.00  0.00    +0.000 A 
ATOM     19  C   UNL     1       0.475   0.728   0.765  0.00  0.00    +0.000 A 
BRANCH  18  20
ATOM     20  C   UNL     1       2.659   1.822   1.417  0.00  0.00    +0.000 C 
ATOM     21  F   UNL     1       3.869   1.531   1.974  0.00  0.00    +0.000 F 
ATOM     22  F   UNL     1       2.923   2.202   0.138  0.00  0.00    +0.000 F 
ATOM     23  F   UNL     1       2.218   2.941   2.058  0.00  0.00    +0.000 F 
ENDBRANCH  18  20
ENDBRANCH   3  14
BRANCH   1  25
ATOM     24  C   UNL     1      -2.973   0.959  -3.097  0.00  0.00    +0.000 C 
ATOM     25  C   UNL     1      -2.944   0.296  -1.944  0.00  0.00    +0.000 C 
ENDBRANCH   1  25
BRANCH  10  26
ATOM     26  O   UNL     1      -4.289  -2.913   4.698  0.00  0.00    +0.000 OA
ATOM     27  C   UNL     1      -3.083  -2.717   5.478  0.00  0.00    +0.000 C 
ENDBRANCH  10  26
BRANCH  11  28
ATOM     28  O   UNL     1      -5.534  -3.322   1.986  0.00  0.00    +0.000 OA
BRANCH  28  29
ATOM     29  C   UNL     1      -6.111  -4.348   2.801  0.00  0.00    +0.000 C 
BRANCH  29  30
ATOM     30  C   UNL     1      -7.191  -3.981   3.851  0.00  0.00    +0.000 C 
BRANCH  30  31
ATOM     31  C   UNL     1      -7.925  -5.273   4.314  0.00  0.00    +0.000 C 
BRANCH  31  32
ATOM     32  N   UNL     1      -8.671  -5.307   5.573  0.00  0.00    +0.000 N 
ATOM     33  C   UNL     1      -9.411  -6.569   5.786  0.00  0.00    +0.000 C 
ATOM     34  C   UNL     1     -10.911  -6.489   5.463  0.00  0.00    +0.000 C 
ATOM     35  O   UNL     1     -11.531  -5.454   6.228  0.00  0.00    +0.000 OA
ATOM     36  C   UNL     1     -10.962  -4.187   5.876  0.00  0.00    +0.000 C 
ATOM     37  C   UNL     1      -9.429  -4.151   6.054  0.00  0.00    +0.000 C 
ATOM     38  H   UNL     1      -7.861  -5.243   6.190  0.00  0.00    +0.000 HD
ENDBRANCH  31  32
ENDBRANCH  30  31
ENDBRANCH  29  30
ENDBRANCH  28  29
ENDBRANCH  11  28
TORSDOF 9
