MODEL 1
REMARK VINA RESULT:    -8.939      0.000      0.000
REMARK INTER + INTRA:         -12.981
REMARK INTER:                 -12.336
REMARK INTRA:                  -0.645
REMARK UNBOUND:                -0.645
REMARK  Name = 
REMARK  7 active torsions:
REMARK  status: ('A' for Active; 'I' for Inactive)
REMARK    1  A    between atoms: C_2  and  C_3
REMARK    2  A    between atoms: C_10  and  C_11
REMARK    3  A    between atoms: C_13  and  C_14
REMARK    4  A    between atoms: C_17  and  C_18
REMARK    5  A    between atoms: N_20  and  C_21
REMARK    6  A    between atoms: C_30  and  C_31
REMARK    7  A    between atoms: N_34  and  N_35
REMARK                            x       y       z     vdW  Elec       q    Type
REMARK                         _______ _______ _______ _____ _____    ______ ____
ROOT
ATOM      1  C   UNL     1      18.411  -0.407  51.843  0.00  0.00    +0.000 A 
ATOM      2  N   UNL     1      19.411   0.208  51.245  0.00  0.00    +0.000 NA
ATOM      3  C   UNL     1      20.466   0.161  52.112  0.00  0.00    +0.000 A 
ATOM      4  C   UNL     1      20.107  -0.467  53.296  0.00  0.00    +0.000 A 
ATOM      5  N   UNL     1      18.847  -0.974  53.022  0.00  0.00    +0.000 N 
ENDROOT
BRANCH   1  13
ATOM      6  C   UNL     1      14.738  -0.131  52.252  0.00  0.00    +0.000 C 
ATOM      7  O   UNL     1      13.779   0.613  52.443  0.00  0.00    +0.000 OA
ATOM      8  N   UNL     1      16.032   0.334  52.010  0.00  0.00    +0.000 N 
ATOM      9  C   UNL     1      16.229   1.788  51.977  0.00  0.00    +0.000 C 
ATOM     10  C   UNL     1      16.320   2.333  50.553  0.00  0.00    +0.000 C 
ATOM     11  C   UNL     1      17.311   1.543  49.702  0.00  0.00    +0.000 C 
ATOM     12  C   UNL     1      17.035   0.037  49.792  0.00  0.00    +0.000 C 
ATOM     13  C   UNL     1      17.023  -0.464  51.258  0.00  0.00    +0.000 C 
BRANCH   6  15
ATOM     14  C   UNL     1      13.718  -2.248  51.524  0.00  0.00    +0.000 C 
ATOM     15  C   UNL     1      14.562  -1.608  52.343  0.00  0.00    +0.000 C 
ENDBRANCH   6  15
ENDBRANCH   1  13
BRANCH   3  16
ATOM     16  C   UNL     1      21.709   0.814  51.753  0.00  0.00    +0.000 A 
ATOM     17  C   UNL     1      21.729   1.641  50.624  0.00  0.00    +0.000 A 
ATOM     18  C   UNL     1      22.877   2.342  50.271  0.00  0.00    +0.000 A 
ATOM     19  C   UNL     1      24.030   2.218  51.052  0.00  0.00    +0.000 A 
ATOM     20  C   UNL     1      24.047   1.342  52.142  0.00  0.00    +0.000 A 
ATOM     21  C   UNL     1      22.892   0.630  52.479  0.00  0.00    +0.000 A 
BRANCH  19  22
ATOM     22  C   UNL     1      25.177   3.110  50.761  0.00  0.00    +0.000 C 
ATOM     23  O   UNL     1      26.075   3.200  51.592  0.00  0.00    +0.000 OA
ATOM     24  N   UNL     1      25.116   3.803  49.571  0.00  0.00    +0.000 N 
ATOM     25  H   UNL     1      24.348   3.659  48.970  0.00  0.00    +0.000 HD
BRANCH  24  26
ATOM     26  C   UNL     1      26.115   4.704  49.196  0.00  0.00    +0.000 A 
ATOM     27  C   UNL     1      25.858   6.059  49.050  0.00  0.00    +0.000 A 
ATOM     28  C   UNL     1      26.883   6.863  48.573  0.00  0.00    +0.000 A 
ATOM     29 BR   UNL     1      26.601   8.719  48.356  0.00  0.00    +0.000 Br
ATOM     30  C   UNL     1      28.110   6.308  48.242  0.00  0.00    +0.000 A 
ATOM     31  C   UNL     1      28.280   4.955  48.470  0.00  0.00    +0.000 A 
ATOM     32  N   UNL     1      27.323   4.150  48.980  0.00  0.00    +0.000 NA
ENDBRANCH  24  26
ENDBRANCH  19  22
ENDBRANCH   3  16
BRANCH   4  33
ATOM     33  C   UNL     1      20.795  -0.603  54.552  0.00  0.00    +0.000 C 
ATOM     34  N   UNL     1      20.748   0.483  55.383  0.00  0.00    +0.000 N 
ATOM     35  O   UNL     1      21.346  -1.625  54.945  0.00  0.00    +0.000 OA
ATOM     36  H   UNL     1      20.310   1.313  55.084  0.00  0.00    +0.000 HD
ATOM     37  H   UNL     1      21.154   0.435  56.279  0.00  0.00    +0.000 HD
ENDBRANCH   4  33
BRANCH   5  38
ATOM     38  N   UNL     1      18.112  -1.873  53.840  0.00  0.00    +0.000 N 
ATOM     39  H   UNL     1      18.551  -2.321  54.598  0.00  0.00    +0.000 HD
ATOM     40  H   UNL     1      17.162  -2.048  53.648  0.00  0.00    +0.000 HD
ENDBRANCH   5  38
TORSDOF 7
ENDMDL
MODEL 2
REMARK VINA RESULT:    -8.727      3.664      4.266
REMARK INTER + INTRA:         -12.688
REMARK INTER:                 -12.588
REMARK INTRA:                  -0.100
REMARK UNBOUND:                -0.645
REMARK  Name = 
REMARK  7 active torsions:
REMARK  status: ('A' for Active; 'I' for Inactive)
REMARK    1  A    between atoms: C_2  and  C_3
REMARK    2  A    between atoms: C_10  and  C_11
REMARK    3  A    between atoms: C_13  and  C_14
REMARK    4  A    between atoms: C_17  and  C_18
REMARK    5  A    between atoms: N_20  and  C_21
REMARK    6  A    between atoms: C_30  and  C_31
REMARK    7  A    between atoms: N_34  and  N_35
REMARK                            x       y       z     vdW  Elec       q    Type
REMARK                         _______ _______ _______ _____ _____    ______ ____
ROOT
ATOM      1  C   UNL     1      16.295   0.626  51.962  0.00  0.00    +0.000 A 
ATOM      2  N   UNL     1      17.457   1.171  51.661  0.00  0.00    +0.000 NA
ATOM      3  C   UNL     1      18.415   0.305  52.105  0.00  0.00    +0.000 A 
ATOM      4  C   UNL     1      17.841  -0.792  52.730  0.00  0.00    +0.000 A 
ATOM      5  N   UNL     1      16.490  -0.644  52.463  0.00  0.00    +0.000 N 
ENDROOT
BRANCH   1  13
ATOM      6  C   UNL     1      13.552   2.773  53.225  0.00  0.00    +0.000 C 
ATOM      7  O   UNL     1      13.205   3.901  53.568  0.00  0.00    +0.000 OA
ATOM      8  N   UNL     1      14.783   2.499  52.629  0.00  0.00    +0.000 N 
ATOM      9  C   UNL     1      15.689   3.632  52.402  0.00  0.00    +0.000 C 
ATOM     10  C   UNL     1      15.674   4.110  50.951  0.00  0.00    +0.000 C 
ATOM     11  C   UNL     1      15.851   2.956  49.968  0.00  0.00    +0.000 C 
ATOM     12  C   UNL     1      14.869   1.817  50.275  0.00  0.00    +0.000 C 
ATOM     13  C   UNL     1      14.982   1.333  51.742  0.00  0.00    +0.000 C 
BRANCH   6  15
ATOM     14  C   UNL     1      12.126   1.434  54.716  0.00  0.00    +0.000 C 
ATOM     15  C   UNL     1      12.668   1.608  53.504  0.00  0.00    +0.000 C 
ENDBRANCH   6  15
ENDBRANCH   1  13
BRANCH   3  16
ATOM     16  C   UNL     1      19.813   0.663  51.967  0.00  0.00    +0.000 A 
ATOM     17  C   UNL     1      20.430   1.365  53.008  0.00  0.00    +0.000 A 
ATOM     18  C   UNL     1      21.784   1.679  52.956  0.00  0.00    +0.000 A 
ATOM     19  C   UNL     1      22.541   1.288  51.846  0.00  0.00    +0.000 A 
ATOM     20  C   UNL     1      21.924   0.648  50.768  0.00  0.00    +0.000 A 
ATOM     21  C   UNL     1      20.559   0.352  50.823  0.00  0.00    +0.000 A 
BRANCH  19  22
ATOM     22  C   UNL     1      24.011   1.473  51.897  0.00  0.00    +0.000 C 
ATOM     23  O   UNL     1      24.561   2.047  50.962  0.00  0.00    +0.000 OA
ATOM     24  N   UNL     1      24.648   0.942  52.997  0.00  0.00    +0.000 N 
ATOM     25  H   UNL     1      24.113   0.499  53.695  0.00  0.00    +0.000 HD
BRANCH  24  26
ATOM     26  C   UNL     1      26.035   1.016  53.146  0.00  0.00    +0.000 A 
ATOM     27  C   UNL     1      26.831  -0.120  53.143  0.00  0.00    +0.000 A 
ATOM     28  C   UNL     1      28.184   0.039  53.402  0.00  0.00    +0.000 A 
ATOM     29 BR   UNL     1      29.326  -1.467  53.406  0.00  0.00    +0.000 Br
ATOM     30  C   UNL     1      28.701   1.297  53.671  0.00  0.00    +0.000 A 
ATOM     31  C   UNL     1      27.833   2.371  53.603  0.00  0.00    +0.000 A 
ATOM     32  N   UNL     1      26.520   2.262  53.304  0.00  0.00    +0.000 NA
ENDBRANCH  24  26
ENDBRANCH  19  22
ENDBRANCH   3  16
BRANCH   4  33
ATOM     33  C   UNL     1      18.416  -1.864  53.498  0.00  0.00    +0.000 C 
ATOM     34  N   UNL     1      19.600  -1.586  54.124  0.00  0.00    +0.000 N 
ATOM     35  O   UNL     1      17.893  -2.958  53.678  0.00  0.00    +0.000 OA
ATOM     36  H   UNL     1      20.035  -0.713  53.990  0.00  0.00    +0.000 HD
ATOM     37  H   UNL     1      20.018  -2.261  54.708  0.00  0.00    +0.000 HD
ENDBRANCH   4  33
BRANCH   5  38
ATOM     38  N   UNL     1      15.477  -1.607  52.715  0.00  0.00    +0.000 N 
ATOM     39  H   UNL     1      15.214  -1.816  53.640  0.00  0.00    +0.000 HD
ATOM     40  H   UNL     1      15.036  -2.066  51.963  0.00  0.00    +0.000 HD
ENDBRANCH   5  38
TORSDOF 7
ENDMDL
MODEL 3
REMARK VINA RESULT:    -8.658      2.861      4.504
REMARK INTER + INTRA:         -12.594
REMARK INTER:                 -11.489
REMARK INTRA:                  -1.105
REMARK UNBOUND:                -0.645
REMARK  Name = 
REMARK  7 active torsions:
REMARK  status: ('A' for Active; 'I' for Inactive)
REMARK    1  A    between atoms: C_2  and  C_3
REMARK    2  A    between atoms: C_10  and  C_11
REMARK    3  A    between atoms: C_13  and  C_14
REMARK    4  A    between atoms: C_17  and  C_18
REMARK    5  A    between atoms: N_20  and  C_21
REMARK    6  A    between atoms: C_30  and  C_31
REMARK    7  A    between atoms: N_34  and  N_35
REMARK                            x       y       z     vdW  Elec       q    Type
REMARK                         _______ _______ _______ _____ _____    ______ ____
ROOT
ATOM      1  C   UNL     1      21.721   1.967  50.465  0.00  0.00    +0.000 A 
ATOM      2  N   UNL     1      22.552   2.638  49.693  0.00  0.00    +0.000 NA
ATOM      3  C   UNL     1      23.702   2.797  50.412  0.00  0.00    +0.000 A 
ATOM      4  C   UNL     1      23.577   2.242  51.678  0.00  0.00    +0.000 A 
ATOM      5  N   UNL     1      22.369   1.566  51.614  0.00  0.00    +0.000 N 
ENDROOT
BRANCH   1  13
ATOM      6  C   UNL     1      18.168   1.498  51.410  0.00  0.00    +0.000 C 
ATOM      7  O   UNL     1      17.134   2.027  51.812  0.00  0.00    +0.000 OA
ATOM      8  N   UNL     1      19.304   2.221  51.042  0.00  0.00    +0.000 N 
ATOM      9  C   UNL     1      19.233   3.684  51.139  0.00  0.00    +0.000 C 
ATOM     10  C   UNL     1      19.000   4.349  49.784  0.00  0.00    +0.000 C 
ATOM     11  C   UNL     1      19.969   3.835  48.722  0.00  0.00    +0.000 C 
ATOM     12  C   UNL     1      19.982   2.301  48.686  0.00  0.00    +0.000 C 
ATOM     13  C   UNL     1      20.290   1.691  50.076  0.00  0.00    +0.000 C 
BRANCH   6  15
ATOM     14  C   UNL     1      17.413  -0.756  52.041  0.00  0.00    +0.000 C 
ATOM     15  C   UNL     1      18.274   0.013  51.364  0.00  0.00    +0.000 C 
ENDBRANCH   6  15
ENDBRANCH   1  13
BRANCH   3  16
ATOM     16  C   UNL     1      24.795   3.558  49.842  0.00  0.00    +0.000 A 
ATOM     17  C   UNL     1      24.545   4.862  49.400  0.00  0.00    +0.000 A 
ATOM     18  C   UNL     1      25.571   5.658  48.903  0.00  0.00    +0.000 A 
ATOM     19  C   UNL     1      26.873   5.150  48.841  0.00  0.00    +0.000 A 
ATOM     20  C   UNL     1      27.126   3.826  49.214  0.00  0.00    +0.000 A 
ATOM     21  C   UNL     1      26.084   3.029  49.697  0.00  0.00    +0.000 A 
BRANCH  19  22
ATOM     22  C   UNL     1      27.973   6.075  48.480  0.00  0.00    +0.000 C 
ATOM     23  O   UNL     1      29.017   5.600  48.044  0.00  0.00    +0.000 OA
ATOM     24  N   UNL     1      27.734   7.413  48.705  0.00  0.00    +0.000 N 
ATOM     25  H   UNL     1      26.858   7.692  49.060  0.00  0.00    +0.000 HD
BRANCH  24  26
ATOM     26  C   UNL     1      28.703   8.384  48.442  0.00  0.00    +0.000 A 
ATOM     27  C   UNL     1      28.951   8.837  47.154  0.00  0.00    +0.000 A 
ATOM     28  C   UNL     1      30.002   9.724  46.972  0.00  0.00    +0.000 A 
ATOM     29 BR   UNL     1      30.388  10.385  45.245  0.00  0.00    +0.000 Br
ATOM     30  C   UNL     1      30.779  10.117  48.052  0.00  0.00    +0.000 A 
ATOM     31  C   UNL     1      30.420   9.645  49.301  0.00  0.00    +0.000 A 
ATOM     32  N   UNL     1      29.373   8.822  49.524  0.00  0.00    +0.000 NA
ENDBRANCH  24  26
ENDBRANCH  19  22
ENDBRANCH   3  16
BRANCH   4  33
ATOM     33  C   UNL     1      24.425   2.304  52.838  0.00  0.00    +0.000 C 
ATOM     34  N   UNL     1      24.597   3.544  53.390  0.00  0.00    +0.000 N 
ATOM     35  O   UNL     1      24.935   1.334  53.388  0.00  0.00    +0.000 OA
ATOM     36  H   UNL     1      24.195   4.334  52.962  0.00  0.00    +0.000 HD
ATOM     37  H   UNL     1      25.124   3.645  54.216  0.00  0.00    +0.000 HD
ENDBRANCH   4  33
BRANCH   5  38
ATOM     38  N   UNL     1      21.863   0.664  52.588  0.00  0.00    +0.000 N 
ATOM     39  H   UNL     1      21.284   0.994  53.312  0.00  0.00    +0.000 HD
ATOM     40  H   UNL     1      22.091  -0.293  52.538  0.00  0.00    +0.000 HD
ENDBRANCH   5  38
TORSDOF 7
ENDMDL
MODEL 4
REMARK VINA RESULT:    -8.475      4.250      5.380
REMARK INTER + INTRA:         -12.341
REMARK INTER:                 -11.585
REMARK INTRA:                  -0.756
REMARK UNBOUND:                -0.645
REMARK  Name = 
REMARK  7 active torsions:
REMARK  status: ('A' for Active; 'I' for Inactive)
REMARK    1  A    between atoms: C_2  and  C_3
REMARK    2  A    between atoms: C_10  and  C_11
REMARK    3  A    between atoms: C_13  and  C_14
REMARK    4  A    between atoms: C_17  and  C_18
REMARK    5  A    between atoms: N_20  and  C_21
REMARK    6  A    between atoms: C_30  and  C_31
REMARK    7  A    between atoms: N_34  and  N_35
REMARK                            x       y       z     vdW  Elec       q    Type
REMARK                         _______ _______ _______ _____ _____    ______ ____
ROOT
ATOM      1  C   UNL     1      16.148   0.021  50.897  0.00  0.00    +0.000 A 
ATOM      2  N   UNL     1      17.234  -0.550  51.377  0.00  0.00    +0.000 NA
ATOM      3  C   UNL     1      18.109   0.461  51.656  0.00  0.00    +0.000 A 
ATOM      4  C   UNL     1      17.572   1.693  51.309  0.00  0.00    +0.000 A 
ATOM      5  N   UNL     1      16.256   1.392  50.996  0.00  0.00    +0.000 N 
ENDROOT
BRANCH   1  13
ATOM      6  C   UNL     1      14.718  -3.182  49.701  0.00  0.00    +0.000 C 
ATOM      7  O   UNL     1      14.333  -4.310  50.000  0.00  0.00    +0.000 OA
ATOM      8  N   UNL     1      15.066  -2.216  50.646  0.00  0.00    +0.000 N 
ATOM      9  C   UNL     1      14.950  -2.587  52.062  0.00  0.00    +0.000 C 
ATOM     10  C   UNL     1      13.686  -2.026  52.711  0.00  0.00    +0.000 C 
ATOM     11  C   UNL     1      13.517  -0.534  52.435  0.00  0.00    +0.000 C 
ATOM     12  C   UNL     1      13.651  -0.234  50.937  0.00  0.00    +0.000 C 
ATOM     13  C   UNL     1      14.984  -0.769  50.355  0.00  0.00    +0.000 C 
BRANCH   6  15
ATOM     14  C   UNL     1      13.900  -2.977  47.390  0.00  0.00    +0.000 C 
ATOM     15  C   UNL     1      14.897  -2.813  48.269  0.00  0.00    +0.000 C 
ENDBRANCH   6  15
ENDBRANCH   1  13
BRANCH   3  16
ATOM     16  C   UNL     1      19.433   0.138  52.149  0.00  0.00    +0.000 A 
ATOM     17  C   UNL     1      20.532   0.354  51.310  0.00  0.00    +0.000 A 
ATOM     18  C   UNL     1      21.828   0.120  51.755  0.00  0.00    +0.000 A 
ATOM     19  C   UNL     1      22.039  -0.340  53.059  0.00  0.00    +0.000 A 
ATOM     20  C   UNL     1      20.949  -0.627  53.885  0.00  0.00    +0.000 A 
ATOM     21  C   UNL     1      19.649  -0.404  53.423  0.00  0.00    +0.000 A 
BRANCH  19  22
ATOM     22  C   UNL     1      23.431  -0.407  53.565  0.00  0.00    +0.000 C 
ATOM     23  O   UNL     1      23.632  -0.929  54.657  0.00  0.00    +0.000 OA
ATOM     24  N   UNL     1      24.393   0.167  52.763  0.00  0.00    +0.000 N 
ATOM     25  H   UNL     1      24.126   0.561  51.900  0.00  0.00    +0.000 HD
BRANCH  24  26
ATOM     26  C   UNL     1      25.736   0.203  53.143  0.00  0.00    +0.000 A 
ATOM     27  C   UNL     1      26.587  -0.869  52.918  0.00  0.00    +0.000 A 
ATOM     28  C   UNL     1      27.877  -0.788  53.422  0.00  0.00    +0.000 A 
ATOM     29 BR   UNL     1      29.088  -2.211  53.145  0.00  0.00    +0.000 Br
ATOM     30  C   UNL     1      28.276   0.330  54.140  0.00  0.00    +0.000 A 
ATOM     31  C   UNL     1      27.368   1.364  54.268  0.00  0.00    +0.000 A 
ATOM     32  N   UNL     1      26.122   1.342  53.748  0.00  0.00    +0.000 NA
ENDBRANCH  24  26
ENDBRANCH  19  22
ENDBRANCH   3  16
BRANCH   4  33
ATOM     33  C   UNL     1      18.154   3.006  51.245  0.00  0.00    +0.000 C 
ATOM     34  N   UNL     1      18.979   3.246  50.181  0.00  0.00    +0.000 N 
ATOM     35  O   UNL     1      17.911   3.921  52.024  0.00  0.00    +0.000 OA
ATOM     36  H   UNL     1      19.186   2.523  49.545  0.00  0.00    +0.000 HD
ATOM     37  H   UNL     1      19.367   4.142  50.051  0.00  0.00    +0.000 HD
ENDBRANCH   4  33
BRANCH   5  38
ATOM     38  N   UNL     1      15.216   2.332  50.764  0.00  0.00    +0.000 N 
ATOM     39  H   UNL     1      14.398   2.055  50.292  0.00  0.00    +0.000 HD
ATOM     40  H   UNL     1      15.314   3.261  51.076  0.00  0.00    +0.000 HD
ENDBRANCH   5  38
TORSDOF 7
ENDMDL
MODEL 5
REMARK VINA RESULT:    -8.470      1.487      1.879
REMARK INTER + INTRA:         -12.333
REMARK INTER:                 -11.123
REMARK INTRA:                  -1.210
REMARK UNBOUND:                -0.645
REMARK  Name = 
REMARK  7 active torsions:
REMARK  status: ('A' for Active; 'I' for Inactive)
REMARK    1  A    between atoms: C_2  and  C_3
REMARK    2  A    between atoms: C_10  and  C_11
REMARK    3  A    between atoms: C_13  and  C_14
REMARK    4  A    between atoms: C_17  and  C_18
REMARK    5  A    between atoms: N_20  and  C_21
REMARK    6  A    between atoms: C_30  and  C_31
REMARK    7  A    between atoms: N_34  and  N_35
REMARK                            x       y       z     vdW  Elec       q    Type
REMARK                         _______ _______ _______ _____ _____    ______ ____
ROOT
ATOM      1  C   UNL     1      17.683  -0.638  51.775  0.00  0.00    +0.000 A 
ATOM      2  N   UNL     1      18.488   0.213  51.172  0.00  0.00    +0.000 NA
ATOM      3  C   UNL     1      19.616   0.286  51.939  0.00  0.00    +0.000 A 
ATOM      4  C   UNL     1      19.500  -0.512  53.069  0.00  0.00    +0.000 A 
ATOM      5  N   UNL     1      18.333  -1.223  52.842  0.00  0.00    +0.000 N 
ENDROOT
BRANCH   1  13
ATOM      6  C   UNL     1      14.262  -1.908  52.421  0.00  0.00    +0.000 C 
ATOM      7  O   UNL     1      13.195  -1.734  53.005  0.00  0.00    +0.000 OA
ATOM      8  N   UNL     1      15.285  -0.960  52.397  0.00  0.00    +0.000 N 
ATOM      9  C   UNL     1      15.049   0.305  53.105  0.00  0.00    +0.000 C 
ATOM     10  C   UNL     1      14.671   1.442  52.157  0.00  0.00    +0.000 C 
ATOM     11  C   UNL     1      15.639   1.550  50.981  0.00  0.00    +0.000 C 
ATOM     12  C   UNL     1      15.829   0.189  50.299  0.00  0.00    +0.000 C 
ATOM     13  C   UNL     1      16.276  -0.904  51.302  0.00  0.00    +0.000 C 
BRANCH   6  15
ATOM     14  C   UNL     1      15.021  -4.247  52.444  0.00  0.00    +0.000 C 
ATOM     15  C   UNL     1      14.538  -3.209  51.751  0.00  0.00    +0.000 C 
ENDBRANCH   6  15
ENDBRANCH   1  13
BRANCH   3  16
ATOM     16  C   UNL     1      20.675   1.198  51.558  0.00  0.00    +0.000 A 
ATOM     17  C   UNL     1      20.541   2.553  51.881  0.00  0.00    +0.000 A 
ATOM     18  C   UNL     1      21.554   3.461  51.595  0.00  0.00    +0.000 A 
ATOM     19  C   UNL     1      22.726   3.016  50.974  0.00  0.00    +0.000 A 
ATOM     20  C   UNL     1      22.846   1.679  50.582  0.00  0.00    +0.000 A 
ATOM     21  C   UNL     1      21.814   0.778  50.860  0.00  0.00    +0.000 A 
BRANCH  19  22
ATOM     22  C   UNL     1      23.858   3.964  50.846  0.00  0.00    +0.000 C 
ATOM     23  O   UNL     1      24.581   4.147  51.821  0.00  0.00    +0.000 OA
ATOM     24  N   UNL     1      23.981   4.596  49.628  0.00  0.00    +0.000 N 
ATOM     25  H   UNL     1      23.346   4.378  48.907  0.00  0.00    +0.000 HD
BRANCH  24  26
ATOM     26  C   UNL     1      24.983   5.540  49.391  0.00  0.00    +0.000 A 
ATOM     27  C   UNL     1      26.236   5.172  48.923  0.00  0.00    +0.000 A 
ATOM     28  C   UNL     1      27.202   6.160  48.816  0.00  0.00    +0.000 A 
ATOM     29 BR   UNL     1      28.928   5.727  48.179  0.00  0.00    +0.000 Br
ATOM     30  C   UNL     1      26.911   7.464  49.188  0.00  0.00    +0.000 A 
ATOM     31  C   UNL     1      25.619   7.738  49.597  0.00  0.00    +0.000 A 
ATOM     32  N   UNL     1      24.638   6.812  49.665  0.00  0.00    +0.000 NA
ENDBRANCH  24  26
ENDBRANCH  19  22
ENDBRANCH   3  16
BRANCH   4  33
ATOM     33  C   UNL     1      20.324  -0.635  54.241  0.00  0.00    +0.000 C 
ATOM     34  N   UNL     1      20.490   0.504  54.981  0.00  0.00    +0.000 N 
ATOM     35  O   UNL     1      20.818  -1.681  54.646  0.00  0.00    +0.000 OA
ATOM     36  H   UNL     1      20.101   1.353  54.671  0.00  0.00    +0.000 HD
ATOM     37  H   UNL     1      21.000   0.473  55.823  0.00  0.00    +0.000 HD
ENDBRANCH   4  33
BRANCH   5  38
ATOM     38  N   UNL     1      17.861  -2.322  53.607  0.00  0.00    +0.000 N 
ATOM     39  H   UNL     1      16.934  -2.331  53.939  0.00  0.00    +0.000 HD
ATOM     40  H   UNL     1      18.461  -3.078  53.805  0.00  0.00    +0.000 HD
ENDBRANCH   5  38
TORSDOF 7
ENDMDL
MODEL 6
REMARK VINA RESULT:    -8.395      3.944      5.279
REMARK INTER + INTRA:         -12.230
REMARK INTER:                 -11.093
REMARK INTRA:                  -1.137
REMARK UNBOUND:                -0.645
REMARK  Name = 
REMARK  7 active torsions:
REMARK  status: ('A' for Active; 'I' for Inactive)
REMARK    1  A    between atoms: C_2  and  C_3
REMARK    2  A    between atoms: C_10  and  C_11
REMARK    3  A    between atoms: C_13  and  C_14
REMARK    4  A    between atoms: C_17  and  C_18
REMARK    5  A    between atoms: N_20  and  C_21
REMARK    6  A    between atoms: C_30  and  C_31
REMARK    7  A    between atoms: N_34  and  N_35
REMARK                            x       y       z     vdW  Elec       q    Type
REMARK                         _______ _______ _______ _____ _____    ______ ____
ROOT
ATOM      1  C   UNL     1      17.453   2.729  51.393  0.00  0.00    +0.000 A 
ATOM      2  N   UNL     1      18.617   2.326  51.862  0.00  0.00    +0.000 NA
ATOM      3  C   UNL     1      19.548   3.206  51.389  0.00  0.00    +0.000 A 
ATOM      4  C   UNL     1      18.959   4.163  50.575  0.00  0.00    +0.000 A 
ATOM      5  N   UNL     1      17.602   3.937  50.745  0.00  0.00    +0.000 N 
ENDROOT
BRANCH   1  13
ATOM      6  C   UNL     1      13.911   2.081  50.518  0.00  0.00    +0.000 C 
ATOM      7  O   UNL     1      13.123   1.644  49.683  0.00  0.00    +0.000 OA
ATOM      8  N   UNL     1      15.295   1.946  50.409  0.00  0.00    +0.000 N 
ATOM      9  C   UNL     1      15.812   1.234  49.233  0.00  0.00    +0.000 C 
ATOM     10  C   UNL     1      16.213  -0.205  49.552  0.00  0.00    +0.000 C 
ATOM     11  C   UNL     1      17.111  -0.288  50.783  0.00  0.00    +0.000 C 
ATOM     12  C   UNL     1      16.500   0.479  51.963  0.00  0.00    +0.000 C 
ATOM     13  C   UNL     1      16.179   1.949  51.594  0.00  0.00    +0.000 C 
BRANCH   6  15
ATOM     14  C   UNL     1      13.176   4.172  51.585  0.00  0.00    +0.000 C 
ATOM     15  C   UNL     1      13.403   2.857  51.684  0.00  0.00    +0.000 C 
ENDBRANCH   6  15
ENDBRANCH   1  13
BRANCH   3  16
ATOM     16  C   UNL     1      20.948   2.987  51.691  0.00  0.00    +0.000 A 
ATOM     17  C   UNL     1      21.484   1.709  51.495  0.00  0.00    +0.000 A 
ATOM     18  C   UNL     1      22.835   1.459  51.709  0.00  0.00    +0.000 A 
ATOM     19  C   UNL     1      23.673   2.498  52.128  0.00  0.00    +0.000 A 
ATOM     20  C   UNL     1      23.139   3.762  52.395  0.00  0.00    +0.000 A 
ATOM     21  C   UNL     1      21.777   3.999  52.193  0.00  0.00    +0.000 A 
BRANCH  19  22
ATOM     22  C   UNL     1      25.133   2.250  52.173  0.00  0.00    +0.000 C 
ATOM     23  O   UNL     1      25.798   2.487  51.169  0.00  0.00    +0.000 OA
ATOM     24  N   UNL     1      25.621   1.729  53.352  0.00  0.00    +0.000 N 
ATOM     25  H   UNL     1      25.001   1.575  54.102  0.00  0.00    +0.000 HD
BRANCH  24  26
ATOM     26  C   UNL     1      26.973   1.416  53.510  0.00  0.00    +0.000 A 
ATOM     27  C   UNL     1      27.452   0.130  53.310  0.00  0.00    +0.000 A 
ATOM     28  C   UNL     1      28.788  -0.113  53.591  0.00  0.00    +0.000 A 
ATOM     29 BR   UNL     1      29.505  -1.843  53.335  0.00  0.00    +0.000 Br
ATOM     30  C   UNL     1      29.597   0.906  54.072  0.00  0.00    +0.000 A 
ATOM     31  C   UNL     1      29.035   2.163  54.191  0.00  0.00    +0.000 A 
ATOM     32  N   UNL     1      27.753   2.449  53.879  0.00  0.00    +0.000 NA
ENDBRANCH  24  26
ENDBRANCH  19  22
ENDBRANCH   3  16
BRANCH   4  33
ATOM     33  C   UNL     1      19.525   5.173  49.722  0.00  0.00    +0.000 C 
ATOM     34  N   UNL     1      20.303   4.721  48.692  0.00  0.00    +0.000 N 
ATOM     35  O   UNL     1      19.306   6.376  49.816  0.00  0.00    +0.000 OA
ATOM     36  H   UNL     1      20.490   3.759  48.601  0.00  0.00    +0.000 HD
ATOM     37  H   UNL     1      20.677   5.359  48.041  0.00  0.00    +0.000 HD
ENDBRANCH   4  33
BRANCH   5  38
ATOM     38  N   UNL     1      16.551   4.773  50.281  0.00  0.00    +0.000 N 
ATOM     39  H   UNL     1      15.743   4.375  49.885  0.00  0.00    +0.000 HD
ATOM     40  H   UNL     1      16.631   5.751  50.358  0.00  0.00    +0.000 HD
ENDBRANCH   5  38
TORSDOF 7
ENDMDL
MODEL 7
REMARK VINA RESULT:    -8.035      4.436     10.388
REMARK INTER + INTRA:         -11.733
REMARK INTER:                 -11.938
REMARK INTRA:                   0.205
REMARK UNBOUND:                -0.645
REMARK  Name = 
REMARK  7 active torsions:
REMARK  status: ('A' for Active; 'I' for Inactive)
REMARK    1  A    between atoms: C_2  and  C_3
REMARK    2  A    between atoms: C_10  and  C_11
REMARK    3  A    between atoms: C_13  and  C_14
REMARK    4  A    between atoms: C_17  and  C_18
REMARK    5  A    between atoms: N_20  and  C_21
REMARK    6  A    between atoms: C_30  and  C_31
REMARK    7  A    between atoms: N_34  and  N_35
REMARK                            x       y       z     vdW  Elec       q    Type
REMARK                         _______ _______ _______ _____ _____    ______ ____
ROOT
ATOM      1  C   UNL     1      23.741   3.106  52.189  0.00  0.00    +0.000 A 
ATOM      2  N   UNL     1      22.516   2.624  52.144  0.00  0.00    +0.000 NA
ATOM      3  C   UNL     1      22.571   1.381  52.708  0.00  0.00    +0.000 A 
ATOM      4  C   UNL     1      23.868   1.063  53.083  0.00  0.00    +0.000 A 
ATOM      5  N   UNL     1      24.555   2.252  52.903  0.00  0.00    +0.000 N 
ENDROOT
BRANCH   1  13
ATOM      6  C   UNL     1      24.759   5.053  49.205  0.00  0.00    +0.000 C 
ATOM      7  O   UNL     1      24.421   5.524  48.121  0.00  0.00    +0.000 OA
ATOM      8  N   UNL     1      23.862   4.468  50.099  0.00  0.00    +0.000 N 
ATOM      9  C   UNL     1      22.447   4.432  49.706  0.00  0.00    +0.000 C 
ATOM     10  C   UNL     1      21.623   5.521  50.392  0.00  0.00    +0.000 C 
ATOM     11  C   UNL     1      21.858   5.549  51.900  0.00  0.00    +0.000 C 
ATOM     12  C   UNL     1      23.358   5.586  52.222  0.00  0.00    +0.000 C 
ATOM     13  C   UNL     1      24.124   4.418  51.552  0.00  0.00    +0.000 C 
BRANCH   6  15
ATOM     14  C   UNL     1      27.155   5.205  48.667  0.00  0.00    +0.000 C 
ATOM     15  C   UNL     1      26.199   5.030  49.588  0.00  0.00    +0.000 C 
ENDBRANCH   6  15
ENDBRANCH   1  13
BRANCH   3  16
ATOM     16  C   UNL     1      21.372   0.567  52.749  0.00  0.00    +0.000 A 
ATOM     17  C   UNL     1      21.157  -0.253  53.862  0.00  0.00    +0.000 A 
ATOM     18  C   UNL     1      19.994  -1.006  53.982  0.00  0.00    +0.000 A 
ATOM     19  C   UNL     1      19.025  -0.946  52.975  0.00  0.00    +0.000 A 
ATOM     20  C   UNL     1      19.257  -0.187  51.825  0.00  0.00    +0.000 A 
ATOM     21  C   UNL     1      20.436   0.554  51.707  0.00  0.00    +0.000 A 
BRANCH  19  22
ATOM     22  C   UNL     1      17.723  -1.613  53.212  0.00  0.00    +0.000 C 
ATOM     23  O   UNL     1      16.763  -0.922  53.541  0.00  0.00    +0.000 OA
ATOM     24  N   UNL     1      17.713  -2.984  53.074  0.00  0.00    +0.000 N 
ATOM     25  H   UNL     1      18.540  -3.446  52.805  0.00  0.00    +0.000 HD
BRANCH  24  26
ATOM     26  C   UNL     1      16.558  -3.734  53.306  0.00  0.00    +0.000 A 
ATOM     27  C   UNL     1      16.501  -4.698  54.302  0.00  0.00    +0.000 A 
ATOM     28  C   UNL     1      15.351  -5.467  54.393  0.00  0.00    +0.000 A 
ATOM     29 BR   UNL     1      15.207  -6.793  55.732  0.00  0.00    +0.000 Br
ATOM     30  C   UNL     1      14.311  -5.276  53.496  0.00  0.00    +0.000 A 
ATOM     31  C   UNL     1      14.446  -4.258  52.570  0.00  0.00    +0.000 A 
ATOM     32  N   UNL     1      15.529  -3.456  52.484  0.00  0.00    +0.000 NA
ENDBRANCH  24  26
ENDBRANCH  19  22
ENDBRANCH   3  16
BRANCH   4  33
ATOM     33  C   UNL     1      24.456  -0.166  53.546  0.00  0.00    +0.000 C 
ATOM     34  N   UNL     1      25.461  -0.679  52.773  0.00  0.00    +0.000 N 
ATOM     35  O   UNL     1      24.169  -0.730  54.596  0.00  0.00    +0.000 OA
ATOM     36  H   UNL     1      25.705  -0.239  51.926  0.00  0.00    +0.000 HD
ATOM     37  H   UNL     1      25.940  -1.489  53.063  0.00  0.00    +0.000 HD
ENDBRANCH   4  33
BRANCH   5  38
ATOM     38  N   UNL     1      25.883   2.524  53.328  0.00  0.00    +0.000 N 
ATOM     39  H   UNL     1      26.452   3.136  52.808  0.00  0.00    +0.000 HD
ATOM     40  H   UNL     1      26.235   2.099  54.144  0.00  0.00    +0.000 HD
ENDBRANCH   5  38
TORSDOF 7
ENDMDL
MODEL 8
REMARK VINA RESULT:    -7.939      5.532      7.382
REMARK INTER + INTRA:         -11.601
REMARK INTER:                 -10.560
REMARK INTRA:                  -1.041
REMARK UNBOUND:                -0.645
REMARK  Name = 
REMARK  7 active torsions:
REMARK  status: ('A' for Active; 'I' for Inactive)
REMARK    1  A    between atoms: C_2  and  C_3
REMARK    2  A    between atoms: C_10  and  C_11
REMARK    3  A    between atoms: C_13  and  C_14
REMARK    4  A    between atoms: C_17  and  C_18
REMARK    5  A    between atoms: N_20  and  C_21
REMARK    6  A    between atoms: C_30  and  C_31
REMARK    7  A    between atoms: N_34  and  N_35
REMARK                            x       y       z     vdW  Elec       q    Type
REMARK                         _______ _______ _______ _____ _____    ______ ____
ROOT
ATOM      1  C   UNL     1      19.802   6.401  48.544  0.00  0.00    +0.000 A 
ATOM      2  N   UNL     1      21.036   6.031  48.823  0.00  0.00    +0.000 NA
ATOM      3  C   UNL     1      20.937   4.938  49.636  0.00  0.00    +0.000 A 
ATOM      4  C   UNL     1      19.608   4.637  49.903  0.00  0.00    +0.000 A 
ATOM      5  N   UNL     1      18.911   5.476  49.049  0.00  0.00    +0.000 N 
ENDROOT
BRANCH   1  13
ATOM      6  C   UNL     1      17.589   9.300  47.888  0.00  0.00    +0.000 C 
ATOM      7  O   UNL     1      17.173  10.385  48.286  0.00  0.00    +0.000 OA
ATOM      8  N   UNL     1      18.633   8.607  48.503  0.00  0.00    +0.000 N 
ATOM      9  C   UNL     1      19.254   9.230  49.679  0.00  0.00    +0.000 C 
ATOM     10  C   UNL     1      20.583   9.906  49.347  0.00  0.00    +0.000 C 
ATOM     11  C   UNL     1      21.511   8.984  48.559  0.00  0.00    +0.000 C 
ATOM     12  C   UNL     1      20.785   8.377  47.351  0.00  0.00    +0.000 C 
ATOM     13  C   UNL     1      19.481   7.649  47.763  0.00  0.00    +0.000 C 
BRANCH   6  15
ATOM     14  C   UNL     1      15.794   7.938  46.901  0.00  0.00    +0.000 C 
ATOM     15  C   UNL     1      16.928   8.629  46.733  0.00  0.00    +0.000 C 
ENDBRANCH   6  15
ENDBRANCH   1  13
BRANCH   3  16
ATOM     16  C   UNL     1      22.144   4.335  50.163  0.00  0.00    +0.000 A 
ATOM     17  C   UNL     1      22.912   3.526  49.319  0.00  0.00    +0.000 A 
ATOM     18  C   UNL     1      24.112   2.974  49.754  0.00  0.00    +0.000 A 
ATOM     19  C   UNL     1      24.558   3.227  51.055  0.00  0.00    +0.000 A 
ATOM     20  C   UNL     1      23.768   3.975  51.933  0.00  0.00    +0.000 A 
ATOM     21  C   UNL     1      22.556   4.513  51.491  0.00  0.00    +0.000 A 
BRANCH  19  22
ATOM     22  C   UNL     1      25.920   2.779  51.432  0.00  0.00    +0.000 C 
ATOM     23  O   UNL     1      26.800   2.799  50.577  0.00  0.00    +0.000 OA
ATOM     24  N   UNL     1      26.073   2.337  52.728  0.00  0.00    +0.000 N 
ATOM     25  H   UNL     1      25.300   2.363  53.339  0.00  0.00    +0.000 HD
BRANCH  24  26
ATOM     26  C   UNL     1      27.296   1.854  53.197  0.00  0.00    +0.000 A 
ATOM     27  C   UNL     1      27.679   0.534  53.010  0.00  0.00    +0.000 A 
ATOM     28  C   UNL     1      28.863   0.115  53.600  0.00  0.00    +0.000 A 
ATOM     29 BR   UNL     1      29.445  -1.670  53.380  0.00  0.00    +0.000 Br
ATOM     30  C   UNL     1      29.614   0.997  54.362  0.00  0.00    +0.000 A 
ATOM     31  C   UNL     1      29.171   2.304  54.447  0.00  0.00    +0.000 A 
ATOM     32  N   UNL     1      28.051   2.761  53.845  0.00  0.00    +0.000 NA
ENDBRANCH  24  26
ENDBRANCH  19  22
ENDBRANCH   3  16
BRANCH   4  33
ATOM     33  C   UNL     1      19.004   3.711  50.823  0.00  0.00    +0.000 C 
ATOM     34  N   UNL     1      18.696   2.478  50.318  0.00  0.00    +0.000 N 
ATOM     35  O   UNL     1      18.816   3.927  52.015  0.00  0.00    +0.000 OA
ATOM     36  H   UNL     1      18.840   2.286  49.364  0.00  0.00    +0.000 HD
ATOM     37  H   UNL     1      18.329   1.781  50.911  0.00  0.00    +0.000 HD
ENDBRANCH   4  33
BRANCH   5  38
ATOM     38  N   UNL     1      17.516   5.429  48.785  0.00  0.00    +0.000 N 
ATOM     39  H   UNL     1      17.190   5.105  47.916  0.00  0.00    +0.000 HD
ATOM     40  H   UNL     1      16.875   5.720  49.474  0.00  0.00    +0.000 HD
ENDBRANCH   5  38
TORSDOF 7
ENDMDL
MODEL 9
REMARK VINA RESULT:    -7.712      4.404      6.234
REMARK INTER + INTRA:         -11.288
REMARK INTER:                 -10.435
REMARK INTRA:                  -0.853
REMARK UNBOUND:                -0.645
REMARK  Name = 
REMARK  7 active torsions:
REMARK  status: ('A' for Active; 'I' for Inactive)
REMARK    1  A    between atoms: C_2  and  C_3
REMARK    2  A    between atoms: C_10  and  C_11
REMARK    3  A    between atoms: C_13  and  C_14
REMARK    4  A    between atoms: C_17  and  C_18
REMARK    5  A    between atoms: N_20  and  C_21
REMARK    6  A    between atoms: C_30  and  C_31
REMARK    7  A    between atoms: N_34  and  N_35
REMARK                            x       y       z     vdW  Elec       q    Type
REMARK                         _______ _______ _______ _____ _____    ______ ____
ROOT
ATOM      1  C   UNL     1      18.744   4.685  49.954  0.00  0.00    +0.000 A 
ATOM      2  N   UNL     1      19.855   4.171  50.442  0.00  0.00    +0.000 NA
ATOM      3  C   UNL     1      20.883   4.773  49.774  0.00  0.00    +0.000 A 
ATOM      4  C   UNL     1      20.404   5.660  48.820  0.00  0.00    +0.000 A 
ATOM      5  N   UNL     1      19.045   5.713  49.084  0.00  0.00    +0.000 N 
ENDROOT
BRANCH   1  13
ATOM      6  C   UNL     1      15.354   3.520  49.015  0.00  0.00    +0.000 C 
ATOM      7  O   UNL     1      14.676   2.620  48.525  0.00  0.00    +0.000 OA
ATOM      8  N   UNL     1      16.713   3.386  49.302  0.00  0.00    +0.000 N 
ATOM      9  C   UNL     1      17.340   2.093  49.003  0.00  0.00    +0.000 C 
ATOM     10  C   UNL     1      17.518   1.228  50.250  0.00  0.00    +0.000 C 
ATOM     11  C   UNL     1      18.177   2.000  51.390  0.00  0.00    +0.000 C 
ATOM     12  C   UNL     1      17.462   3.335  51.637  0.00  0.00    +0.000 C 
ATOM     13  C   UNL     1      17.375   4.192  50.349  0.00  0.00    +0.000 C 
BRANCH   6  15
ATOM     14  C   UNL     1      13.511   5.139  48.827  0.00  0.00    +0.000 C 
ATOM     15  C   UNL     1      14.744   4.856  49.267  0.00  0.00    +0.000 C 
ENDBRANCH   6  15
ENDBRANCH   1  13
BRANCH   3  16
ATOM     16  C   UNL     1      22.245   4.366  50.054  0.00  0.00    +0.000 A 
ATOM     17  C   UNL     1      22.768   4.608  51.330  0.00  0.00    +0.000 A 
ATOM     18  C   UNL     1      24.047   4.181  51.672  0.00  0.00    +0.000 A 
ATOM     19  C   UNL     1      24.824   3.502  50.728  0.00  0.00    +0.000 A 
ATOM     20  C   UNL     1      24.343   3.314  49.429  0.00  0.00    +0.000 A 
ATOM     21  C   UNL     1      23.063   3.761  49.090  0.00  0.00    +0.000 A 
BRANCH  19  22
ATOM     22  C   UNL     1      26.105   2.902  51.172  0.00  0.00    +0.000 C 
ATOM     23  O   UNL     1      27.046   2.881  50.384  0.00  0.00    +0.000 OA
ATOM     24  N   UNL     1      26.115   2.376  52.446  0.00  0.00    +0.000 N 
ATOM     25  H   UNL     1      25.304   2.445  53.000  0.00  0.00    +0.000 HD
BRANCH  24  26
ATOM     26  C   UNL     1      27.248   1.750  52.970  0.00  0.00    +0.000 A 
ATOM     27  C   UNL     1      27.482   0.395  52.790  0.00  0.00    +0.000 A 
ATOM     28  C   UNL     1      28.576  -0.164  53.433  0.00  0.00    +0.000 A 
ATOM     29 BR   UNL     1      28.954  -2.004  53.224  0.00  0.00    +0.000 Br
ATOM     30  C   UNL     1      29.387   0.621  54.240  0.00  0.00    +0.000 A 
ATOM     31  C   UNL     1      29.097   1.970  54.315  0.00  0.00    +0.000 A 
ATOM     32  N   UNL     1      28.071   2.559  53.663  0.00  0.00    +0.000 NA
ENDBRANCH  24  26
ENDBRANCH  19  22
ENDBRANCH   3  16
BRANCH   4  33
ATOM     33  C   UNL     1      21.068   6.386  47.771  0.00  0.00    +0.000 C 
ATOM     34  N   UNL     1      21.568   7.612  48.112  0.00  0.00    +0.000 N 
ATOM     35  O   UNL     1      21.269   5.958  46.640  0.00  0.00    +0.000 OA
ATOM     36  H   UNL     1      21.416   7.972  49.016  0.00  0.00    +0.000 HD
ATOM     37  H   UNL     1      22.080   8.136  47.453  0.00  0.00    +0.000 HD
ENDBRANCH   4  33
BRANCH   5  38
ATOM     38  N   UNL     1      18.118   6.626  48.516  0.00  0.00    +0.000 N 
ATOM     39  H   UNL     1      17.687   7.306  49.081  0.00  0.00    +0.000 HD
ATOM     40  H   UNL     1      17.907   6.579  47.555  0.00  0.00    +0.000 HD
ENDBRANCH   5  38
TORSDOF 7
ENDMDL
