MODEL 1
REMARK VINA RESULT:   -10.005      0.000      0.000
REMARK INTER + INTRA:         -14.234
REMARK INTER:                 -13.514
REMARK INTRA:                  -0.720
REMARK UNBOUND:                -0.720
REMARK  Name = 
REMARK  7 active torsions:
REMARK  status: ('A' for Active; 'I' for Inactive)
REMARK    1  A    between atoms: C_1  and  O_2
REMARK    2  A    between atoms: O_2  and  C_3
REMARK    3  A    between atoms: C_6  and  N_7
REMARK    4  A    between atoms: N_7  and  C_8
REMARK    5  A    between atoms: C_21  and  O_22
REMARK    6  A    between atoms: O_22  and  C_23
REMARK    7  A    between atoms: C_23  and  C_24
REMARK                            x       y       z     vdW  Elec       q    Type
REMARK                         _______ _______ _______ _____ _____    ______ ____
ROOT
ATOM      1  C   UNL     1      20.569   0.573  51.109  0.00  0.00    +0.000 A 
ATOM      2  C   UNL     1      21.840   0.673  51.690  0.00  0.00    +0.000 A 
ATOM      3  C   UNL     1      22.120   0.059  52.930  0.00  0.00    +0.000 A 
ATOM      4  C   UNL     1      23.396  -0.029  53.514  0.00  0.00    +0.000 A 
ATOM      5  N   UNL     1      23.620  -0.743  54.632  0.00  0.00    +0.000 NA
ATOM      6  C   UNL     1      22.564  -1.346  55.183  0.00  0.00    +0.000 A 
ATOM      7  N   UNL     1      21.305  -1.287  54.740  0.00  0.00    +0.000 NA
ATOM      8  C   UNL     1      21.093  -0.601  53.616  0.00  0.00    +0.000 A 
ATOM      9  C   UNL     1      19.809  -0.562  53.091  0.00  0.00    +0.000 A 
ATOM     10  C   UNL     1      19.522   0.038  51.859  0.00  0.00    +0.000 A 
ENDROOT
BRANCH   1  12
ATOM     11  C   UNL     1      21.543   1.236  49.074  0.00  0.00    +0.000 C 
ATOM     12  O   UNL     1      20.349   0.945  49.810  0.00  0.00    +0.000 OA
ENDBRANCH   1  12
BRANCH   4  13
ATOM     13  N   UNL     1      24.496   0.643  52.913  0.00  0.00    +0.000 N 
ATOM     14  H   UNL     1      24.298   1.439  52.369  0.00  0.00    +0.000 HD
BRANCH  13  15
ATOM     15  C   UNL     1      25.851   0.258  53.035  0.00  0.00    +0.000 A 
ATOM     16  C   UNL     1      26.249  -1.051  52.743  0.00  0.00    +0.000 A 
ATOM     17  C   UNL     1      27.586  -1.443  52.899  0.00  0.00    +0.000 A 
ATOM     18  C   UNL     1      28.535  -0.537  53.377  0.00  0.00    +0.000 A 
ATOM     19 CL   UNL     1      30.165  -1.084  53.544  0.00  0.00    +0.000 Cl
ATOM     20  C   UNL     1      28.144   0.761  53.706  0.00  0.00    +0.000 A 
ATOM     21 CL   UNL     1      29.247   1.935  54.335  0.00  0.00    +0.000 Cl
ATOM     22  C   UNL     1      26.810   1.147  53.543  0.00  0.00    +0.000 A 
ENDBRANCH  13  15
ENDBRANCH   4  13
BRANCH  10  23
ATOM     23  O   UNL     1      18.203  -0.044  51.491  0.00  0.00    +0.000 OA
BRANCH  23  24
ATOM     24  C   UNL     1      17.338  -0.932  52.224  0.00  0.00    +0.000 C 
BRANCH  24  25
ATOM     25  C   UNL     1      15.979  -0.355  52.370  0.00  0.00    +0.000 A 
ATOM     26  N   UNL     1      15.629   0.906  52.458  0.00  0.00    +0.000 NA
ATOM     27  C   UNL     1      14.312   0.823  52.802  0.00  0.00    +0.000 A 
ATOM     28  N   UNL     1      13.659   1.962  53.134  0.00  0.00    +0.000 N 
ATOM     29  C   UNL     1      12.646   1.878  54.197  0.00  0.00    +0.000 C 
ATOM     30  C   UNL     1      11.733   3.109  54.121  0.00  0.00    +0.000 C 
ATOM     31  O   UNL     1      12.489   4.328  54.216  0.00  0.00    +0.000 OA
ATOM     32  C   UNL     1      13.445   4.405  53.145  0.00  0.00    +0.000 C 
ATOM     33  C   UNL     1      14.420   3.220  53.175  0.00  0.00    +0.000 C 
ATOM     34  N   UNL     1      13.826  -0.428  52.803  0.00  0.00    +0.000 NA
ATOM     35  O   UNL     1      14.939  -1.216  52.512  0.00  0.00    +0.000 OA
ENDBRANCH  24  25
ENDBRANCH  23  24
ENDBRANCH  10  23
TORSDOF 6
ENDMDL
MODEL 2
REMARK VINA RESULT:    -9.582      2.222      3.582
REMARK INTER + INTRA:         -13.663
REMARK INTER:                 -12.610
REMARK INTRA:                  -1.053
REMARK UNBOUND:                -0.720
REMARK  Name = 
REMARK  7 active torsions:
REMARK  status: ('A' for Active; 'I' for Inactive)
REMARK    1  A    between atoms: C_1  and  O_2
REMARK    2  A    between atoms: O_2  and  C_3
REMARK    3  A    between atoms: C_6  and  N_7
REMARK    4  A    between atoms: N_7  and  C_8
REMARK    5  A    between atoms: C_21  and  O_22
REMARK    6  A    between atoms: O_22  and  C_23
REMARK    7  A    between atoms: C_23  and  C_24
REMARK                            x       y       z     vdW  Elec       q    Type
REMARK                         _______ _______ _______ _____ _____    ______ ____
ROOT
ATOM      1  C   UNL     1      21.661   0.780  52.968  0.00  0.00    +0.000 A 
ATOM      2  C   UNL     1      22.959   1.291  53.100  0.00  0.00    +0.000 A 
ATOM      3  C   UNL     1      23.546   2.054  52.068  0.00  0.00    +0.000 A 
ATOM      4  C   UNL     1      24.772   2.735  52.168  0.00  0.00    +0.000 A 
ATOM      5  N   UNL     1      25.213   3.554  51.196  0.00  0.00    +0.000 NA
ATOM      6  C   UNL     1      24.444   3.671  50.112  0.00  0.00    +0.000 A 
ATOM      7  N   UNL     1      23.290   3.034  49.893  0.00  0.00    +0.000 NA
ATOM      8  C   UNL     1      22.843   2.244  50.871  0.00  0.00    +0.000 A 
ATOM      9  C   UNL     1      21.621   1.608  50.709  0.00  0.00    +0.000 A 
ATOM     10  C   UNL     1      21.027   0.854  51.728  0.00  0.00    +0.000 A 
ENDROOT
BRANCH   1  12
ATOM     11  C   UNL     1      21.590  -0.925  54.586  0.00  0.00    +0.000 C 
ATOM     12  O   UNL     1      20.991   0.256  54.040  0.00  0.00    +0.000 OA
ENDBRANCH   1  12
BRANCH   4  13
ATOM     13  N   UNL     1      25.578   2.571  53.328  0.00  0.00    +0.000 N 
ATOM     14  H   UNL     1      25.377   3.143  54.104  0.00  0.00    +0.000 HD
BRANCH  13  15
ATOM     15  C   UNL     1      26.646   1.653  53.455  0.00  0.00    +0.000 A 
ATOM     16  C   UNL     1      27.914   2.084  53.859  0.00  0.00    +0.000 A 
ATOM     17  C   UNL     1      28.981   1.181  53.948  0.00  0.00    +0.000 A 
ATOM     18  C   UNL     1      28.800  -0.161  53.606  0.00  0.00    +0.000 A 
ATOM     19 CL   UNL     1      30.157  -1.222  53.741  0.00  0.00    +0.000 Cl
ATOM     20  C   UNL     1      27.550  -0.597  53.166  0.00  0.00    +0.000 A 
ATOM     21 CL   UNL     1      27.248  -2.232  52.692  0.00  0.00    +0.000 Cl
ATOM     22  C   UNL     1      26.488   0.309  53.085  0.00  0.00    +0.000 A 
ENDBRANCH  13  15
ENDBRANCH   4  13
BRANCH  10  23
ATOM     23  O   UNL     1      19.808   0.323  51.393  0.00  0.00    +0.000 OA
BRANCH  23  24
ATOM     24  C   UNL     1      18.961   1.058  50.490  0.00  0.00    +0.000 C 
BRANCH  24  25
ATOM     25  C   UNL     1      17.982   1.889  51.233  0.00  0.00    +0.000 A 
ATOM     26  N   UNL     1      16.790   1.560  51.667  0.00  0.00    +0.000 NA
ATOM     27  C   UNL     1      16.276   2.761  52.059  0.00  0.00    +0.000 A 
ATOM     28  N   UNL     1      14.973   2.818  52.423  0.00  0.00    +0.000 N 
ATOM     29  C   UNL     1      14.223   4.033  52.071  0.00  0.00    +0.000 C 
ATOM     30  C   UNL     1      12.951   4.105  52.927  0.00  0.00    +0.000 C 
ATOM     31  O   UNL     1      12.143   2.927  52.764  0.00  0.00    +0.000 OA
ATOM     32  C   UNL     1      12.885   1.758  53.151  0.00  0.00    +0.000 C 
ATOM     33  C   UNL     1      14.160   1.598  52.312  0.00  0.00    +0.000 C 
ATOM     34  N   UNL     1      17.152   3.776  51.994  0.00  0.00    +0.000 NA
ATOM     35  O   UNL     1      18.294   3.194  51.444  0.00  0.00    +0.000 OA
ENDBRANCH  24  25
ENDBRANCH  23  24
ENDBRANCH  10  23
TORSDOF 6
ENDMDL
MODEL 3
REMARK VINA RESULT:    -9.500      2.942      4.688
REMARK INTER + INTRA:         -13.553
REMARK INTER:                 -12.652
REMARK INTRA:                  -0.900
REMARK UNBOUND:                -0.720
REMARK  Name = 
REMARK  7 active torsions:
REMARK  status: ('A' for Active; 'I' for Inactive)
REMARK    1  A    between atoms: C_1  and  O_2
REMARK    2  A    between atoms: O_2  and  C_3
REMARK    3  A    between atoms: C_6  and  N_7
REMARK    4  A    between atoms: N_7  and  C_8
REMARK    5  A    between atoms: C_21  and  O_22
REMARK    6  A    between atoms: O_22  and  C_23
REMARK    7  A    between atoms: C_23  and  C_24
REMARK                            x       y       z     vdW  Elec       q    Type
REMARK                         _______ _______ _______ _____ _____    ______ ____
ROOT
ATOM      1  C   UNL     1      22.127   0.608  52.875  0.00  0.00    +0.000 A 
ATOM      2  C   UNL     1      23.408   1.160  53.012  0.00  0.00    +0.000 A 
ATOM      3  C   UNL     1      23.974   1.940  51.981  0.00  0.00    +0.000 A 
ATOM      4  C   UNL     1      25.177   2.661  52.084  0.00  0.00    +0.000 A 
ATOM      5  N   UNL     1      25.595   3.492  51.113  0.00  0.00    +0.000 NA
ATOM      6  C   UNL     1      24.826   3.583  50.025  0.00  0.00    +0.000 A 
ATOM      7  N   UNL     1      23.695   2.909  49.803  0.00  0.00    +0.000 NA
ATOM      8  C   UNL     1      23.270   2.107  50.781  0.00  0.00    +0.000 A 
ATOM      9  C   UNL     1      22.069   1.431  50.615  0.00  0.00    +0.000 A 
ATOM     10  C   UNL     1      21.496   0.660  51.633  0.00  0.00    +0.000 A 
ENDROOT
BRANCH   1  12
ATOM     11  C   UNL     1      22.268  -0.828  54.732  0.00  0.00    +0.000 C 
ATOM     12  O   UNL     1      21.470   0.064  53.945  0.00  0.00    +0.000 OA
ENDBRANCH   1  12
BRANCH   4  13
ATOM     13  N   UNL     1      25.983   2.525  53.248  0.00  0.00    +0.000 N 
ATOM     14  H   UNL     1      25.813   3.145  53.992  0.00  0.00    +0.000 HD
BRANCH  13  15
ATOM     15  C   UNL     1      27.011   1.569  53.418  0.00  0.00    +0.000 A 
ATOM     16  C   UNL     1      28.283   1.958  53.852  0.00  0.00    +0.000 A 
ATOM     17  C   UNL     1      29.312   1.017  53.985  0.00  0.00    +0.000 A 
ATOM     18  C   UNL     1      29.090  -0.323  53.658  0.00  0.00    +0.000 A 
ATOM     19 CL   UNL     1      30.400  -1.432  53.847  0.00  0.00    +0.000 Cl
ATOM     20  C   UNL     1      27.836  -0.718  53.189  0.00  0.00    +0.000 A 
ATOM     21 CL   UNL     1      27.485  -2.348  52.732  0.00  0.00    +0.000 Cl
ATOM     22  C   UNL     1      26.812   0.226  53.065  0.00  0.00    +0.000 A 
ENDBRANCH  13  15
ENDBRANCH   4  13
BRANCH  10  23
ATOM     23  O   UNL     1      20.296   0.089  51.294  0.00  0.00    +0.000 OA
BRANCH  23  24
ATOM     24  C   UNL     1      19.112   0.908  51.320  0.00  0.00    +0.000 C 
BRANCH  24  25
ATOM     25  C   UNL     1      17.949   0.149  51.842  0.00  0.00    +0.000 A 
ATOM     26  N   UNL     1      17.932  -1.018  52.438  0.00  0.00    +0.000 NA
ATOM     27  C   UNL     1      16.601  -1.310  52.480  0.00  0.00    +0.000 A 
ATOM     28  N   UNL     1      16.223  -2.540  52.900  0.00  0.00    +0.000 N 
ATOM     29  C   UNL     1      15.054  -3.150  52.248  0.00  0.00    +0.000 C 
ATOM     30  C   UNL     1      14.523  -4.290  53.128  0.00  0.00    +0.000 C 
ATOM     31  O   UNL     1      15.545  -5.268  53.388  0.00  0.00    +0.000 OA
ATOM     32  C   UNL     1      16.659  -4.656  54.060  0.00  0.00    +0.000 C 
ATOM     33  C   UNL     1      17.268  -3.524  53.222  0.00  0.00    +0.000 C 
ATOM     34  N   UNL     1      15.811  -0.314  52.048  0.00  0.00    +0.000 NA
ATOM     35  O   UNL     1      16.711   0.662  51.623  0.00  0.00    +0.000 OA
ENDBRANCH  24  25
ENDBRANCH  23  24
ENDBRANCH  10  23
TORSDOF 6
ENDMDL
MODEL 4
REMARK VINA RESULT:    -9.367      4.290      7.205
REMARK INTER + INTRA:         -13.373
REMARK INTER:                 -12.158
REMARK INTRA:                  -1.215
REMARK UNBOUND:                -0.720
REMARK  Name = 
REMARK  7 active torsions:
REMARK  status: ('A' for Active; 'I' for Inactive)
REMARK    1  A    between atoms: C_1  and  O_2
REMARK    2  A    between atoms: O_2  and  C_3
REMARK    3  A    between atoms: C_6  and  N_7
REMARK    4  A    between atoms: N_7  and  C_8
REMARK    5  A    between atoms: C_21  and  O_22
REMARK    6  A    between atoms: O_22  and  C_23
REMARK    7  A    between atoms: C_23  and  C_24
REMARK                            x       y       z     vdW  Elec       q    Type
REMARK                         _______ _______ _______ _____ _____    ______ ____
ROOT
ATOM      1  C   UNL     1      22.157   1.950  50.533  0.00  0.00    +0.000 A 
ATOM      2  C   UNL     1      22.984   1.123  51.303  0.00  0.00    +0.000 A 
ATOM      3  C   UNL     1      22.542   0.605  52.540  0.00  0.00    +0.000 A 
ATOM      4  C   UNL     1      23.233  -0.351  53.305  0.00  0.00    +0.000 A 
ATOM      5  N   UNL     1      22.696  -0.903  54.408  0.00  0.00    +0.000 NA
ATOM      6  C   UNL     1      21.481  -0.480  54.763  0.00  0.00    +0.000 A 
ATOM      7  N   UNL     1      20.760   0.456  54.139  0.00  0.00    +0.000 NA
ATOM      8  C   UNL     1      21.285   0.980  53.030  0.00  0.00    +0.000 A 
ATOM      9  C   UNL     1      20.545   1.914  52.320  0.00  0.00    +0.000 A 
ATOM     10  C   UNL     1      20.971   2.429  51.090  0.00  0.00    +0.000 A 
ENDROOT
BRANCH   1  12
ATOM     11  C   UNL     1      21.867   1.388  48.268  0.00  0.00    +0.000 C 
ATOM     12  O   UNL     1      22.467   2.257  49.236  0.00  0.00    +0.000 OA
ENDBRANCH   1  12
BRANCH   4  13
ATOM     13  N   UNL     1      24.535  -0.764  52.911  0.00  0.00    +0.000 N 
ATOM     14  H   UNL     1      24.604  -1.562  52.338  0.00  0.00    +0.000 HD
BRANCH  13  15
ATOM     15  C   UNL     1      25.740  -0.120  53.278  0.00  0.00    +0.000 A 
ATOM     16  C   UNL     1      25.757   1.248  53.568  0.00  0.00    +0.000 A 
ATOM     17  C   UNL     1      26.957   1.894  53.895  0.00  0.00    +0.000 A 
ATOM     18  C   UNL     1      28.160   1.184  53.907  0.00  0.00    +0.000 A 
ATOM     19 CL   UNL     1      29.602   2.041  54.321  0.00  0.00    +0.000 Cl
ATOM     20  C   UNL     1      28.162  -0.173  53.583  0.00  0.00    +0.000 A 
ATOM     21 CL   UNL     1      29.609  -1.118  53.542  0.00  0.00    +0.000 Cl
ATOM     22  C   UNL     1      26.960  -0.812  53.264  0.00  0.00    +0.000 A 
ENDBRANCH  13  15
ENDBRANCH   4  13
BRANCH  10  23
ATOM     23  O   UNL     1      20.096   3.321  50.523  0.00  0.00    +0.000 OA
BRANCH  23  24
ATOM     24  C   UNL     1      20.061   4.668  51.032  0.00  0.00    +0.000 C 
BRANCH  24  25
ATOM     25  C   UNL     1      21.410   5.284  51.007  0.00  0.00    +0.000 A 
ATOM     26  N   UNL     1      22.017   5.889  50.015  0.00  0.00    +0.000 NA
ATOM     27  C   UNL     1      23.286   6.037  50.491  0.00  0.00    +0.000 A 
ATOM     28  N   UNL     1      24.242   6.494  49.649  0.00  0.00    +0.000 N 
ATOM     29  C   UNL     1      25.597   5.940  49.795  0.00  0.00    +0.000 C 
ATOM     30  C   UNL     1      26.599   6.867  49.094  0.00  0.00    +0.000 C 
ATOM     31  O   UNL     1      26.259   7.055  47.710  0.00  0.00    +0.000 OA
ATOM     32  C   UNL     1      24.947   7.633  47.595  0.00  0.00    +0.000 C 
ATOM     33  C   UNL     1      23.880   6.742  48.245  0.00  0.00    +0.000 C 
ATOM     34  N   UNL     1      23.436   5.660  51.771  0.00  0.00    +0.000 NA
ATOM     35  O   UNL     1      22.182   5.159  52.118  0.00  0.00    +0.000 OA
ENDBRANCH  24  25
ENDBRANCH  23  24
ENDBRANCH  10  23
TORSDOF 6
ENDMDL
MODEL 5
REMARK VINA RESULT:    -9.322      1.585      2.123
REMARK INTER + INTRA:         -13.312
REMARK INTER:                 -12.720
REMARK INTRA:                  -0.591
REMARK UNBOUND:                -0.720
REMARK  Name = 
REMARK  7 active torsions:
REMARK  status: ('A' for Active; 'I' for Inactive)
REMARK    1  A    between atoms: C_1  and  O_2
REMARK    2  A    between atoms: O_2  and  C_3
REMARK    3  A    between atoms: C_6  and  N_7
REMARK    4  A    between atoms: N_7  and  C_8
REMARK    5  A    between atoms: C_21  and  O_22
REMARK    6  A    between atoms: O_22  and  C_23
REMARK    7  A    between atoms: C_23  and  C_24
REMARK                            x       y       z     vdW  Elec       q    Type
REMARK                         _______ _______ _______ _____ _____    ______ ____
ROOT
ATOM      1  C   UNL     1      21.047   1.634  50.571  0.00  0.00    +0.000 A 
ATOM      2  C   UNL     1      22.153   1.554  51.426  0.00  0.00    +0.000 A 
ATOM      3  C   UNL     1      22.142   0.694  52.546  0.00  0.00    +0.000 A 
ATOM      4  C   UNL     1      23.252   0.428  53.368  0.00  0.00    +0.000 A 
ATOM      5  N   UNL     1      23.213  -0.502  54.338  0.00  0.00    +0.000 NA
ATOM      6  C   UNL     1      22.057  -1.148  54.507  0.00  0.00    +0.000 A 
ATOM      7  N   UNL     1      20.932  -0.940  53.818  0.00  0.00    +0.000 NA
ATOM      8  C   UNL     1      20.983  -0.036  52.839  0.00  0.00    +0.000 A 
ATOM      9  C   UNL     1      19.852   0.170  52.061  0.00  0.00    +0.000 A 
ATOM     10  C   UNL     1      19.854   1.016  50.946  0.00  0.00    +0.000 A 
ENDROOT
BRANCH   1  12
ATOM     11  C   UNL     1      21.768   3.547  49.408  0.00  0.00    +0.000 C 
ATOM     12  O   UNL     1      21.129   2.266  49.359  0.00  0.00    +0.000 OA
ENDBRANCH   1  12
BRANCH   4  13
ATOM     13  N   UNL     1      24.462   1.150  53.175  0.00  0.00    +0.000 N 
ATOM     14  H   UNL     1      24.389   2.110  52.968  0.00  0.00    +0.000 HD
BRANCH  13  15
ATOM     15  C   UNL     1      25.761   0.598  53.255  0.00  0.00    +0.000 A 
ATOM     16  C   UNL     1      25.998  -0.727  52.873  0.00  0.00    +0.000 A 
ATOM     17  C   UNL     1      27.278  -1.286  52.988  0.00  0.00    +0.000 A 
ATOM     18  C   UNL     1      28.331  -0.535  53.514  0.00  0.00    +0.000 A 
ATOM     19 CL   UNL     1      29.884  -1.284  53.626  0.00  0.00    +0.000 Cl
ATOM     20  C   UNL     1      28.100   0.776  53.933  0.00  0.00    +0.000 A 
ATOM     21 CL   UNL     1      29.339   1.764  54.625  0.00  0.00    +0.000 Cl
ATOM     22  C   UNL     1      26.822   1.329  53.810  0.00  0.00    +0.000 A 
ENDBRANCH  13  15
ENDBRANCH   4  13
BRANCH  10  23
ATOM     23  O   UNL     1      18.653   1.074  50.286  0.00  0.00    +0.000 OA
BRANCH  23  24
ATOM     24  C   UNL     1      18.084   2.367  50.004  0.00  0.00    +0.000 C 
BRANCH  24  25
ATOM     25  C   UNL     1      17.251   2.843  51.136  0.00  0.00    +0.000 A 
ATOM     26  N   UNL     1      16.194   2.279  51.668  0.00  0.00    +0.000 NA
ATOM     27  C   UNL     1      15.723   3.257  52.495  0.00  0.00    +0.000 A 
ATOM     28  N   UNL     1      14.527   3.070  53.100  0.00  0.00    +0.000 N 
ATOM     29  C   UNL     1      13.666   4.248  53.280  0.00  0.00    +0.000 C 
ATOM     30  C   UNL     1      12.604   3.938  54.344  0.00  0.00    +0.000 C 
ATOM     31  O   UNL     1      11.832   2.777  53.990  0.00  0.00    +0.000 OA
ATOM     32  C   UNL     1      12.690   1.631  53.857  0.00  0.00    +0.000 C 
ATOM     33  C   UNL     1      13.763   1.853  52.782  0.00  0.00    +0.000 C 
ATOM     34  N   UNL     1      16.520   4.334  52.574  0.00  0.00    +0.000 NA
ATOM     35  O   UNL     1      17.543   4.058  51.667  0.00  0.00    +0.000 OA
ENDBRANCH  24  25
ENDBRANCH  23  24
ENDBRANCH  10  23
TORSDOF 6
ENDMDL
MODEL 6
REMARK VINA RESULT:    -9.134      4.845     10.171
REMARK INTER + INTRA:         -13.057
REMARK INTER:                 -12.531
REMARK INTRA:                  -0.527
REMARK UNBOUND:                -0.720
REMARK  Name = 
REMARK  7 active torsions:
REMARK  status: ('A' for Active; 'I' for Inactive)
REMARK    1  A    between atoms: C_1  and  O_2
REMARK    2  A    between atoms: O_2  and  C_3
REMARK    3  A    between atoms: C_6  and  N_7
REMARK    4  A    between atoms: N_7  and  C_8
REMARK    5  A    between atoms: C_21  and  O_22
REMARK    6  A    between atoms: O_22  and  C_23
REMARK    7  A    between atoms: C_23  and  C_24
REMARK                            x       y       z     vdW  Elec       q    Type
REMARK                         _______ _______ _______ _____ _____    ______ ____
ROOT
ATOM      1  C   UNL     1      20.670   1.885  50.896  0.00  0.00    +0.000 A 
ATOM      2  C   UNL     1      19.917   1.047  51.729  0.00  0.00    +0.000 A 
ATOM      3  C   UNL     1      20.539   0.038  52.495  0.00  0.00    +0.000 A 
ATOM      4  C   UNL     1      19.895  -0.745  53.471  0.00  0.00    +0.000 A 
ATOM      5  N   UNL     1      20.572  -1.597  54.260  0.00  0.00    +0.000 NA
ATOM      6  C   UNL     1      21.888  -1.690  54.058  0.00  0.00    +0.000 A 
ATOM      7  N   UNL     1      22.590  -1.033  53.130  0.00  0.00    +0.000 NA
ATOM      8  C   UNL     1      21.919  -0.168  52.368  0.00  0.00    +0.000 A 
ATOM      9  C   UNL     1      22.619   0.578  51.430  0.00  0.00    +0.000 A 
ATOM     10  C   UNL     1      22.013   1.584  50.670  0.00  0.00    +0.000 A 
ENDROOT
BRANCH   1  12
ATOM     11  C   UNL     1      19.866   4.060  51.283  0.00  0.00    +0.000 C 
ATOM     12  O   UNL     1      20.126   3.012  50.343  0.00  0.00    +0.000 OA
ENDBRANCH   1  12
BRANCH   4  13
ATOM     13  N   UNL     1      18.488  -0.638  53.645  0.00  0.00    +0.000 N 
ATOM     14  H   UNL     1      18.149   0.154  54.121  0.00  0.00    +0.000 HD
BRANCH  13  15
ATOM     15  C   UNL     1      17.537  -1.580  53.190  0.00  0.00    +0.000 A 
ATOM     16  C   UNL     1      16.501  -1.191  52.333  0.00  0.00    +0.000 A 
ATOM     17  C   UNL     1      15.537  -2.117  51.911  0.00  0.00    +0.000 A 
ATOM     18  C   UNL     1      15.580  -3.437  52.365  0.00  0.00    +0.000 A 
ATOM     19 CL   UNL     1      14.363  -4.527  51.806  0.00  0.00    +0.000 Cl
ATOM     20  C   UNL     1      16.586  -3.829  53.250  0.00  0.00    +0.000 A 
ATOM     21 CL   UNL     1      16.694  -5.433  53.886  0.00  0.00    +0.000 Cl
ATOM     22  C   UNL     1      17.549  -2.901  53.662  0.00  0.00    +0.000 A 
ENDBRANCH  13  15
ENDBRANCH   4  13
BRANCH  10  23
ATOM     23  O   UNL     1      22.868   2.230  49.814  0.00  0.00    +0.000 OA
BRANCH  23  24
ATOM     24  C   UNL     1      23.625   3.350  50.312  0.00  0.00    +0.000 C 
BRANCH  24  25
ATOM     25  C   UNL     1      24.974   2.927  50.761  0.00  0.00    +0.000 A 
ATOM     26  N   UNL     1      25.323   1.824  51.379  0.00  0.00    +0.000 NA
ATOM     27  C   UNL     1      26.614   2.082  51.737  0.00  0.00    +0.000 A 
ATOM     28  N   UNL     1      27.248   1.200  52.544  0.00  0.00    +0.000 N 
ATOM     29  C   UNL     1      28.187   1.744  53.538  0.00  0.00    +0.000 C 
ATOM     30  C   UNL     1      29.109   0.619  54.027  0.00  0.00    +0.000 C 
ATOM     31  O   UNL     1      28.355  -0.479  54.568  0.00  0.00    +0.000 OA
ATOM     32  C   UNL     1      27.473  -1.017  53.568  0.00  0.00    +0.000 C 
ATOM     33  C   UNL     1      26.493   0.045  53.052  0.00  0.00    +0.000 C 
ATOM     34  N   UNL     1      27.092   3.239  51.253  0.00  0.00    +0.000 NA
ATOM     35  O   UNL     1      25.998   3.804  50.600  0.00  0.00    +0.000 OA
ENDBRANCH  24  25
ENDBRANCH  23  24
ENDBRANCH  10  23
TORSDOF 6
ENDMDL
MODEL 7
REMARK VINA RESULT:    -9.068      3.662      5.102
REMARK INTER + INTRA:         -12.968
REMARK INTER:                 -11.995
REMARK INTRA:                  -0.973
REMARK UNBOUND:                -0.720
REMARK  Name = 
REMARK  7 active torsions:
REMARK  status: ('A' for Active; 'I' for Inactive)
REMARK    1  A    between atoms: C_1  and  O_2
REMARK    2  A    between atoms: O_2  and  C_3
REMARK    3  A    between atoms: C_6  and  N_7
REMARK    4  A    between atoms: N_7  and  C_8
REMARK    5  A    between atoms: C_21  and  O_22
REMARK    6  A    between atoms: O_22  and  C_23
REMARK    7  A    between atoms: C_23  and  C_24
REMARK                            x       y       z     vdW  Elec       q    Type
REMARK                         _______ _______ _______ _____ _____    ______ ____
ROOT
ATOM      1  C   UNL     1      22.083   0.494  53.047  0.00  0.00    +0.000 A 
ATOM      2  C   UNL     1      23.340   1.101  53.155  0.00  0.00    +0.000 A 
ATOM      3  C   UNL     1      23.854   1.895  52.106  0.00  0.00    +0.000 A 
ATOM      4  C   UNL     1      25.027   2.668  52.181  0.00  0.00    +0.000 A 
ATOM      5  N   UNL     1      25.391   3.506  51.195  0.00  0.00    +0.000 NA
ATOM      6  C   UNL     1      24.599   3.554  50.121  0.00  0.00    +0.000 A 
ATOM      7  N   UNL     1      23.493   2.830  49.926  0.00  0.00    +0.000 NA
ATOM      8  C   UNL     1      23.121   2.020  50.919  0.00  0.00    +0.000 A 
ATOM      9  C   UNL     1      21.948   1.292  50.781  0.00  0.00    +0.000 A 
ATOM     10  C   UNL     1      21.427   0.507  51.816  0.00  0.00    +0.000 A 
ENDROOT
BRANCH   1  12
ATOM     11  C   UNL     1      21.878  -1.413  54.408  0.00  0.00    +0.000 C 
ATOM     12  O   UNL     1      21.469  -0.068  54.134  0.00  0.00    +0.000 OA
ENDBRANCH   1  12
BRANCH   4  13
ATOM     13  N   UNL     1      25.859   2.577  53.330  0.00  0.00    +0.000 N 
ATOM     14  H   UNL     1      25.680   3.201  54.071  0.00  0.00    +0.000 HD
BRANCH  13  15
ATOM     15  C   UNL     1      26.925   1.663  53.493  0.00  0.00    +0.000 A 
ATOM     16  C   UNL     1      28.184   2.103  53.915  0.00  0.00    +0.000 A 
ATOM     17  C   UNL     1      29.251   1.202  54.040  0.00  0.00    +0.000 A 
ATOM     18  C   UNL     1      29.078  -0.146  53.718  0.00  0.00    +0.000 A 
ATOM     19 CL   UNL     1      30.433  -1.202  53.896  0.00  0.00    +0.000 Cl
ATOM     20  C   UNL     1      27.837  -0.591  53.260  0.00  0.00    +0.000 A 
ATOM     21 CL   UNL     1      27.546  -2.234  52.808  0.00  0.00    +0.000 Cl
ATOM     22  C   UNL     1      26.776   0.312  53.143  0.00  0.00    +0.000 A 
ENDBRANCH  13  15
ENDBRANCH   4  13
BRANCH  10  23
ATOM     23  O   UNL     1      20.247  -0.119  51.505  0.00  0.00    +0.000 OA
BRANCH  23  24
ATOM     24  C   UNL     1      19.021   0.420  52.037  0.00  0.00    +0.000 C 
BRANCH  24  25
ATOM     25  C   UNL     1      18.769   1.787  51.520  0.00  0.00    +0.000 A 
ATOM     26  N   UNL     1      18.483   2.161  50.297  0.00  0.00    +0.000 NA
ATOM     27  C   UNL     1      18.588   3.519  50.371  0.00  0.00    +0.000 A 
ATOM     28  N   UNL     1      18.508   4.236  49.225  0.00  0.00    +0.000 N 
ATOM     29  C   UNL     1      19.354   5.434  49.114  0.00  0.00    +0.000 C 
ATOM     30  C   UNL     1      18.815   6.329  47.990  0.00  0.00    +0.000 C 
ATOM     31  O   UNL     1      18.748   5.619  46.741  0.00  0.00    +0.000 OA
ATOM     32  C   UNL     1      17.885   4.475  46.865  0.00  0.00    +0.000 C 
ATOM     33  C   UNL     1      18.381   3.511  47.952  0.00  0.00    +0.000 C 
ATOM     34  N   UNL     1      18.803   3.982  51.612  0.00  0.00    +0.000 NA
ATOM     35  O   UNL     1      18.922   2.826  52.382  0.00  0.00    +0.000 OA
ENDBRANCH  24  25
ENDBRANCH  23  24
ENDBRANCH  10  23
TORSDOF 6
ENDMDL
MODEL 8
REMARK VINA RESULT:    -8.937      5.060     11.146
REMARK INTER + INTRA:         -12.792
REMARK INTER:                 -11.861
REMARK INTRA:                  -0.931
REMARK UNBOUND:                -0.720
REMARK  Name = 
REMARK  7 active torsions:
REMARK  status: ('A' for Active; 'I' for Inactive)
REMARK    1  A    between atoms: C_1  and  O_2
REMARK    2  A    between atoms: O_2  and  C_3
REMARK    3  A    between atoms: C_6  and  N_7
REMARK    4  A    between atoms: N_7  and  C_8
REMARK    5  A    between atoms: C_21  and  O_22
REMARK    6  A    between atoms: O_22  and  C_23
REMARK    7  A    between atoms: C_23  and  C_24
REMARK                            x       y       z     vdW  Elec       q    Type
REMARK                         _______ _______ _______ _____ _____    ______ ____
ROOT
ATOM      1  C   UNL     1      20.467   2.018  50.910  0.00  0.00    +0.000 A 
ATOM      2  C   UNL     1      19.127   1.618  50.976  0.00  0.00    +0.000 A 
ATOM      3  C   UNL     1      18.736   0.523  51.776  0.00  0.00    +0.000 A 
ATOM      4  C   UNL     1      17.405   0.144  52.030  0.00  0.00    +0.000 A 
ATOM      5  N   UNL     1      17.096  -0.827  52.908  0.00  0.00    +0.000 NA
ATOM      6  C   UNL     1      18.116  -1.440  53.512  0.00  0.00    +0.000 A 
ATOM      7  N   UNL     1      19.413  -1.195  53.309  0.00  0.00    +0.000 NA
ATOM      8  C   UNL     1      19.715  -0.212  52.458  0.00  0.00    +0.000 A 
ATOM      9  C   UNL     1      21.049   0.113  52.261  0.00  0.00    +0.000 A 
ATOM     10  C   UNL     1      21.446   1.201  51.475  0.00  0.00    +0.000 A 
ENDROOT
BRANCH   1  12
ATOM     11  C   UNL     1      20.512   4.357  51.143  0.00  0.00    +0.000 C 
ATOM     12  O   UNL     1      20.826   3.211  50.344  0.00  0.00    +0.000 OA
ENDBRANCH   1  12
BRANCH   4  13
ATOM     13  N   UNL     1      16.343   0.804  51.353  0.00  0.00    +0.000 N 
ATOM     14  H   UNL     1      16.257   0.649  50.385  0.00  0.00    +0.000 HD
BRANCH  13  15
ATOM     15  C   UNL     1      15.401   1.666  51.961  0.00  0.00    +0.000 A 
ATOM     16  C   UNL     1      15.522   3.055  51.839  0.00  0.00    +0.000 A 
ATOM     17  C   UNL     1      14.611   3.910  52.473  0.00  0.00    +0.000 A 
ATOM     18  C   UNL     1      13.582   3.387  53.260  0.00  0.00    +0.000 A 
ATOM     19 CL   UNL     1      12.492   4.496  54.011  0.00  0.00    +0.000 Cl
ATOM     20  C   UNL     1      13.472   2.005  53.419  0.00  0.00    +0.000 A 
ATOM     21 CL   UNL     1      12.250   1.275  54.401  0.00  0.00    +0.000 Cl
ATOM     22  C   UNL     1      14.382   1.157  52.779  0.00  0.00    +0.000 A 
ENDBRANCH  13  15
ENDBRANCH   4  13
BRANCH  10  23
ATOM     23  O   UNL     1      22.805   1.383  51.417  0.00  0.00    +0.000 OA
BRANCH  23  24
ATOM     24  C   UNL     1      23.448   2.107  52.483  0.00  0.00    +0.000 C 
BRANCH  24  25
ATOM     25  C   UNL     1      24.897   1.791  52.545  0.00  0.00    +0.000 A 
ATOM     26  N   UNL     1      25.485   0.622  52.473  0.00  0.00    +0.000 NA
ATOM     27  C   UNL     1      26.772   0.917  52.814  0.00  0.00    +0.000 A 
ATOM     28  N   UNL     1      27.641  -0.105  52.997  0.00  0.00    +0.000 N 
ATOM     29  C   UNL     1      28.652   0.046  54.054  0.00  0.00    +0.000 C 
ATOM     30  C   UNL     1      29.782  -0.965  53.818  0.00  0.00    +0.000 C 
ATOM     31  O   UNL     1      29.278  -2.311  53.766  0.00  0.00    +0.000 OA
ATOM     32  C   UNL     1      28.321  -2.443  52.701  0.00  0.00    +0.000 C 
ATOM     33  C   UNL     1      27.138  -1.482  52.886  0.00  0.00    +0.000 C 
ATOM     34  N   UNL     1      27.008   2.229  52.967  0.00  0.00    +0.000 NA
ATOM     35  O   UNL     1      25.756   2.815  52.785  0.00  0.00    +0.000 OA
ENDBRANCH  24  25
ENDBRANCH  23  24
ENDBRANCH  10  23
TORSDOF 6
ENDMDL
