
     RDKit          3D

 43 47  0  0  0  0  0  0  0  0999 V2000
   -2.5287   -3.3192    0.4436 C   0  0  0  0  0  0  0  0  0  0  0  0
   -1.6211   -2.7752   -0.6659 C   0  0  0  0  0  0  0  0  0  0  0  0
   -2.0685   -3.2913   -2.0392 C   0  0  0  0  0  0  0  0  0  0  0  0
   -0.2776   -3.1868   -0.4238 O   0  0  0  0  0  0  0  0  0  0  0  0
    0.5222   -2.0225   -0.2369 C   0  0  0  0  0  0  0  0  0  0  0  0
   -0.3690   -0.8531   -0.3788 C   0  0  0  0  0  0  0  0  0  0  0  0
   -0.1011    0.5194   -0.4123 C   0  0  0  0  0  0  0  0  0  0  0  0
    1.2159    1.0430   -0.2132 N   0  0  0  0  0  0  0  0  0  0  0  0
    2.0025    0.7312    0.9423 C   0  0  0  0  0  0  0  0  0  0  0  0
    1.5239    0.1320    2.0595 N   0  0  0  0  0  0  0  0  0  0  0  0
    2.5177    0.0596    2.9390 N   0  0  0  0  0  0  0  0  0  0  0  0
    3.6126    0.6179    2.3948 C   0  0  0  0  0  0  0  0  0  0  0  0
    4.8767    0.7719    2.9596 C   0  0  0  0  0  0  0  0  0  0  0  0
    5.8648    1.4059    2.1812 C   0  0  0  0  0  0  0  0  0  0  0  0
    5.5662    1.8643    0.8762 C   0  0  0  0  0  0  0  0  0  0  0  0
    4.2768    1.6933    0.3362 C   0  0  0  0  0  0  0  0  0  0  0  0
    3.3263    1.0610    1.1346 C   0  0  0  0  0  0  0  0  0  0  0  0
   -1.1267    1.3650   -0.7180 N   0  0  0  0  0  0  0  0  0  0  0  0
   -2.3872    0.8941   -0.9664 C   0  0  0  0  0  0  0  0  0  0  0  0
   -3.4741    1.8300   -1.2836 C   0  0  0  0  0  0  0  0  0  0  0  0
   -4.7908    1.5220   -1.5680 C   0  0  0  0  0  0  0  0  0  0  0  0
   -5.4682    2.6627   -1.8037 N   0  0  0  0  0  0  0  0  0  0  0  0
   -4.6206    3.6718   -1.6765 N   0  0  0  0  0  0  0  0  0  0  0  0
   -3.4001    3.2046   -1.3610 C   0  0  0  0  0  0  0  0  0  0  0  0
   -2.6278   -0.4494   -0.9396 N   0  0  0  0  0  0  0  0  0  0  0  0
   -1.6090   -1.2960   -0.6441 C   0  0  0  0  0  0  0  0  0  0  0  0
   -2.1880   -2.9505    1.4354 H   0  0  0  0  0  0  0  0  0  0  0  0
   -3.5800   -2.9950    0.2848 H   0  0  0  0  0  0  0  0  0  0  0  0
   -2.4958   -4.4296    0.4554 H   0  0  0  0  0  0  0  0  0  0  0  0
   -3.1115   -2.9751   -2.2575 H   0  0  0  0  0  0  0  0  0  0  0  0
   -2.0203   -4.4009   -2.0653 H   0  0  0  0  0  0  0  0  0  0  0  0
   -1.4017   -2.8952   -2.8354 H   0  0  0  0  0  0  0  0  0  0  0  0
    1.3202   -1.9899   -1.0083 H   0  0  0  0  0  0  0  0  0  0  0  0
    0.9750   -2.0524    0.7740 H   0  0  0  0  0  0  0  0  0  0  0  0
    1.5414    1.8084   -0.8448 H   0  0  0  0  0  0  0  0  0  0  0  0
    2.4358   -0.3582    3.8923 H   0  0  0  0  0  0  0  0  0  0  0  0
    5.0923    0.4192    3.9597 H   0  0  0  0  0  0  0  0  0  0  0  0
    6.8593    1.5440    2.5849 H   0  0  0  0  0  0  0  0  0  0  0  0
    6.3342    2.3499    0.2883 H   0  0  0  0  0  0  0  0  0  0  0  0
    4.0385    2.0386   -0.6612 H   0  0  0  0  0  0  0  0  0  0  0  0
   -5.2301    0.5337   -1.6018 H   0  0  0  0  0  0  0  0  0  0  0  0
   -4.8787    4.6749   -1.8054 H   0  0  0  0  0  0  0  0  0  0  0  0
   -2.5255    3.8216   -1.2003 H   0  0  0  0  0  0  0  0  0  0  0  0
  1  2  1  0
  2  3  1  0
  2  4  1  0
  4  5  1  0
  5  6  1  0
  6  7  2  0
  7  8  1  0
  8  9  1  0
  9 10  2  0
 10 11  1  0
 11 12  1  0
 12 13  2  0
 13 14  1  0
 14 15  2  0
 15 16  1  0
 16 17  2  0
  7 18  1  0
 18 19  2  0
 19 20  1  0
 20 21  1  0
 21 22  2  0
 22 23  1  0
 23 24  1  0
 19 25  1  0
 25 26  2  0
 26  2  1  0
 26  6  1  0
 17  9  1  0
 24 20  2  0
 17 12  1  0
  1 27  1  0
  1 28  1  0
  1 29  1  0
  3 30  1  0
  3 31  1  0
  3 32  1  0
  5 33  1  0
  5 34  1  0
  8 35  1  0
 11 36  1  0
 13 37  1  0
 14 38  1  0
 15 39  1  0
 16 40  1  0
 21 41  1  0
 23 42  1  0
 24 43  1  0
M  END
