REMARK  Name = 
REMARK  7 active torsions:
REMARK  status: ('A' for Active; 'I' for Inactive)
REMARK    1  A    between atoms: C_2  and  C_3
REMARK    2  A    between atoms: N_5  and  C_6
REMARK    3  A    between atoms: C_10  and  N_11
REMARK    4  A    between atoms: C_15  and  C_16
REMARK    5  A    between atoms: N_21  and  C_22
REMARK    6  A    between atoms: N_25  and  C_26
REMARK    7  A    between atoms: N_29  and  C_30
REMARK                            x       y       z     vdW  Elec       q    Type
REMARK                         _______ _______ _______ _____ _____    ______ ____
ROOT
ATOM      1  N   UNL     1      -1.745  -2.052  -4.633  0.00  0.00    +0.000 N 
ATOM      2  C   UNL     1      -2.246  -3.311  -4.954  0.00  0.00    +0.000 A 
ATOM      3  O   UNL     1      -2.189  -4.315  -4.245  0.00  0.00    +0.000 OA
ATOM      4  C   UNL     1      -2.864  -3.474  -6.289  0.00  0.00    +0.000 A 
ATOM      5  C   UNL     1      -2.995  -2.465  -7.157  0.00  0.00    +0.000 A 
ATOM      6  C   UNL     1      -3.634  -2.654  -8.500  0.00  0.00    +0.000 C 
ATOM      7  C   UNL     1      -2.474  -1.156  -6.761  0.00  0.00    +0.000 A 
ATOM      8  C   UNL     1      -2.572  -0.043  -7.565  0.00  0.00    +0.000 A 
ATOM      9  N   UNL     1      -2.063   1.153  -7.252  0.00  0.00    +0.000 NA
ATOM     10  C   UNL     1      -1.417   1.268  -6.088  0.00  0.00    +0.000 A 
ATOM     11  N   UNL     1      -0.720   2.447  -5.800  0.00  0.00    +0.000 N 
ATOM     12  N   UNL     1      -1.319   0.265  -5.203  0.00  0.00    +0.000 NA
ATOM     13  C   UNL     1      -1.826  -0.948  -5.544  0.00  0.00    +0.000 A 
ATOM     14  H   UNL     1      -0.493   2.603  -4.855  0.00  0.00    +0.000 HD
ENDROOT
BRANCH   1  19
ATOM     15  C   UNL     1      -1.074  -2.253  -0.946  0.00  0.00    +0.000 A 
ATOM     16  C   UNL     1       0.250  -1.820  -0.914  0.00  0.00    +0.000 A 
ATOM     17  C   UNL     1       0.885  -1.378  -2.077  0.00  0.00    +0.000 A 
ATOM     18  C   UNL     1       0.207  -1.378  -3.296  0.00  0.00    +0.000 A 
ATOM     19  C   UNL     1      -1.096  -1.876  -3.371  0.00  0.00    +0.000 A 
ATOM     20  C   UNL     1      -1.726  -2.316  -2.186  0.00  0.00    +0.000 A 
BRANCH  15  23
ATOM     21  C   UNL     1      -1.401  -2.429   1.519  0.00  0.00    +0.000 C 
ATOM     22  O   UNL     1      -0.384  -1.867   1.900  0.00  0.00    +0.000 OA
ATOM     23  N   UNL     1      -1.795  -2.638   0.210  0.00  0.00    +0.000 N 
ATOM     24  H   UNL     1      -2.654  -3.097   0.070  0.00  0.00    +0.000 HD
BRANCH  21  26
ATOM     25  C   UNL     1      -2.220  -2.688   3.816  0.00  0.00    +0.000 C 
ATOM     26  C   UNL     1      -2.394  -2.935   2.510  0.00  0.00    +0.000 C 
ENDBRANCH  21  26
ENDBRANCH  15  23
ENDBRANCH   1  19
BRANCH  11  27
ATOM     27  C   UNL     1      -0.326   3.394  -6.680  0.00  0.00    +0.000 A 
ATOM     28  C   UNL     1      -0.803   3.690  -7.972  0.00  0.00    +0.000 A 
ATOM     29  N   UNL     1      -0.090   4.646  -8.572  0.00  0.00    +0.000 NA
ATOM     30  N   UNL     1       0.826   4.998  -7.645  0.00  0.00    +0.000 N 
ATOM     31  C   UNL     1       0.719   4.264  -6.491  0.00  0.00    +0.000 A 
BRANCH  30  32
ATOM     32  C   UNL     1       1.838   6.003  -7.981  0.00  0.00    +0.000 C 
ATOM     33  C   UNL     1       2.316   6.820  -6.775  0.00  0.00    +0.000 C 
ATOM     34  C   UNL     1       1.196   7.712  -6.243  0.00  0.00    +0.000 C 
ATOM     35  N   UNL     1       0.640   8.599  -7.272  0.00  0.00    +0.000 N 
ATOM     36  C   UNL     1      -0.536   9.294  -6.730  0.00  0.00    +0.000 C 
ATOM     37  C   UNL     1       0.260   7.903  -8.511  0.00  0.00    +0.000 C 
ATOM     38  C   UNL     1       1.372   7.004  -9.051  0.00  0.00    +0.000 C 
ATOM     39  H   UNL     1       1.379   9.257  -7.518  0.00  0.00    +0.000 HD
ENDBRANCH  30  32
ENDBRANCH  11  27
TORSDOF 5
