MODEL 1
REMARK VINA RESULT:    -8.645      0.000      0.000
REMARK INTER + INTRA:         -15.086
REMARK INTER:                 -13.194
REMARK INTRA:                  -1.892
REMARK UNBOUND:                -1.892
REMARK  Name = 
REMARK  9 active torsions:
REMARK  status: ('A' for Active; 'I' for Inactive)
REMARK    1  A    between atoms: C_2  and  C_3
REMARK    2  A    between atoms: C_4  and  C_5
REMARK    3  A    between atoms: C_5  and  N_6
REMARK    4  A    between atoms: N_6  and  C_7
REMARK    5  A    between atoms: N_10  and  C_11
REMARK    6  A    between atoms: C_14  and  N_15
REMARK    7  A    between atoms: N_15  and  C_16
REMARK    8  A    between atoms: C_29  and  O_30
REMARK    9  A    between atoms: O_30  and  C_31
REMARK                            x       y       z     vdW  Elec       q    Type
REMARK                         _______ _______ _______ _____ _____    ______ ____
ROOT
ATOM      1  C   UNL     1      24.268   3.105  49.835  0.00  0.00    +0.000 A 
ATOM      2  C   UNL     1      24.410   2.403  51.042  0.00  0.00    +0.000 A 
ATOM      3  C   UNL     1      23.385   1.554  51.527  0.00  0.00    +0.000 A 
ATOM      4  C   UNL     1      23.423   0.826  52.731  0.00  0.00    +0.000 A 
ATOM      5  N   UNL     1      22.427  -0.013  53.095  0.00  0.00    +0.000 NA
ATOM      6  C   UNL     1      21.392  -0.110  52.259  0.00  0.00    +0.000 A 
ATOM      7  N   UNL     1      21.244   0.552  51.111  0.00  0.00    +0.000 NA
ATOM      8  C   UNL     1      22.235   1.373  50.756  0.00  0.00    +0.000 A 
ATOM      9  C   UNL     1      22.110   2.079  49.567  0.00  0.00    +0.000 A 
ATOM     10  C   UNL     1      23.082   2.978  49.108  0.00  0.00    +0.000 A 
ENDROOT
BRANCH   1  13
ATOM     11  O   UNL     1      24.895   5.796  50.760  0.00  0.00    +0.000 OA
ATOM     12  C   UNL     1      25.504   5.234  49.862  0.00  0.00    +0.000 C 
ATOM     13  N   UNL     1      25.315   3.942  49.417  0.00  0.00    +0.000 N 
ATOM     14  H   UNL     1      25.956   3.582  48.763  0.00  0.00    +0.000 HD
BRANCH  12  15
ATOM     15  C   UNL     1      26.593   5.891  49.106  0.00  0.00    +0.000 C 
ATOM     16  C   UNL     1      27.663   5.232  48.628  0.00  0.00    +0.000 C 
BRANCH  16  17
ATOM     17  C   UNL     1      28.865   5.893  48.009  0.00  0.00    +0.000 C 
BRANCH  17  18
ATOM     18  N   UNL     1      29.583   6.705  48.996  0.00  0.00    +0.000 N 
ATOM     19  H   UNL     1      30.513   6.306  49.119  0.00  0.00    +0.000 HD
ATOM     20  H   UNL     1      29.020   6.686  49.847  0.00  0.00    +0.000 HD
BRANCH  18  21
ATOM     21  C   UNL     1      29.737   8.112  48.638  0.00  0.00    +0.000 C 
ATOM     22  C   UNL     1      28.803   9.079  49.316  0.00  0.00    +0.000 C 
ATOM     23  C   UNL     1      28.649   8.791  47.853  0.00  0.00    +0.000 C 
ENDBRANCH  18  21
ENDBRANCH  17  18
ENDBRANCH  16  17
ENDBRANCH  12  15
ENDBRANCH   1  13
BRANCH   4  24
ATOM     24  N   UNL     1      24.512   0.996  53.626  0.00  0.00    +0.000 N 
ATOM     25  H   UNL     1      24.352   1.536  54.434  0.00  0.00    +0.000 HD
BRANCH  24  26
ATOM     26  C   UNL     1      25.806   0.456  53.455  0.00  0.00    +0.000 A 
ATOM     27  C   UNL     1      25.975  -0.829  52.918  0.00  0.00    +0.000 A 
ATOM     28  C   UNL     1      27.252  -1.388  52.796  0.00  0.00    +0.000 A 
ATOM     29  C   UNL     1      28.364  -0.675  53.234  0.00  0.00    +0.000 A 
ATOM     30  F   UNL     1      29.578  -1.233  53.113  0.00  0.00    +0.000 F 
ATOM     31  C   UNL     1      28.213   0.586  53.799  0.00  0.00    +0.000 A 
ATOM     32 CL   UNL     1      29.577   1.467  54.372  0.00  0.00    +0.000 Cl
ATOM     33  C   UNL     1      26.941   1.143  53.915  0.00  0.00    +0.000 A 
ENDBRANCH  24  26
ENDBRANCH   4  24
BRANCH  10  34
ATOM     34  O   UNL     1      22.755   3.511  47.893  0.00  0.00    +0.000 OA
BRANCH  34  35
ATOM     35  C   UNL     1      22.314   4.851  47.782  0.00  0.00    +0.000 C 
ATOM     36  F   UNL     1      21.939   5.341  48.990  0.00  0.00    +0.000 F 
ATOM     37  F   UNL     1      23.342   5.622  47.348  0.00  0.00    +0.000 F 
ENDBRANCH  34  35
ENDBRANCH  10  34
TORSDOF 9
ENDMDL
MODEL 2
REMARK VINA RESULT:    -8.492      2.775      5.690
REMARK INTER + INTRA:         -14.852
REMARK INTER:                 -13.719
REMARK INTRA:                  -1.133
REMARK UNBOUND:                -1.892
REMARK  Name = 
REMARK  9 active torsions:
REMARK  status: ('A' for Active; 'I' for Inactive)
REMARK    1  A    between atoms: C_2  and  C_3
REMARK    2  A    between atoms: C_4  and  C_5
REMARK    3  A    between atoms: C_5  and  N_6
REMARK    4  A    between atoms: N_6  and  C_7
REMARK    5  A    between atoms: N_10  and  C_11
REMARK    6  A    between atoms: C_14  and  N_15
REMARK    7  A    between atoms: N_15  and  C_16
REMARK    8  A    between atoms: C_29  and  O_30
REMARK    9  A    between atoms: O_30  and  C_31
REMARK                            x       y       z     vdW  Elec       q    Type
REMARK                         _______ _______ _______ _____ _____    ______ ____
ROOT
ATOM      1  C   UNL     1      25.584   2.460  51.998  0.00  0.00    +0.000 A 
ATOM      2  C   UNL     1      24.215   2.277  52.253  0.00  0.00    +0.000 A 
ATOM      3  C   UNL     1      23.744   1.162  52.987  0.00  0.00    +0.000 A 
ATOM      4  C   UNL     1      22.395   0.879  53.276  0.00  0.00    +0.000 A 
ATOM      5  N   UNL     1      22.030  -0.176  54.038  0.00  0.00    +0.000 NA
ATOM      6  C   UNL     1      23.014  -0.952  54.498  0.00  0.00    +0.000 A 
ATOM      7  N   UNL     1      24.316  -0.791  54.261  0.00  0.00    +0.000 NA
ATOM      8  C   UNL     1      24.669   0.258  53.514  0.00  0.00    +0.000 A 
ATOM      9  C   UNL     1      26.018   0.452  53.249  0.00  0.00    +0.000 A 
ATOM     10  C   UNL     1      26.497   1.509  52.463  0.00  0.00    +0.000 A 
ENDROOT
BRANCH   1  13
ATOM     11  O   UNL     1      24.779   3.198  49.297  0.00  0.00    +0.000 OA
ATOM     12  C   UNL     1      25.605   3.821  49.948  0.00  0.00    +0.000 C 
ATOM     13  N   UNL     1      25.985   3.578  51.251  0.00  0.00    +0.000 N 
ATOM     14  H   UNL     1      26.577   4.232  51.687  0.00  0.00    +0.000 HD
BRANCH  12  15
ATOM     15  C   UNL     1      26.330   4.991  49.403  0.00  0.00    +0.000 C 
ATOM     16  C   UNL     1      27.462   4.889  48.685  0.00  0.00    +0.000 C 
BRANCH  16  17
ATOM     17  C   UNL     1      28.313   6.058  48.265  0.00  0.00    +0.000 C 
BRANCH  17  18
ATOM     18  N   UNL     1      29.613   6.028  48.943  0.00  0.00    +0.000 N 
ATOM     19  H   UNL     1      30.020   5.103  48.808  0.00  0.00    +0.000 HD
ATOM     20  H   UNL     1      29.432   6.249  49.922  0.00  0.00    +0.000 HD
BRANCH  18  21
ATOM     21  C   UNL     1      30.574   7.020  48.469  0.00  0.00    +0.000 C 
ATOM     22  C   UNL     1      31.592   7.495  49.473  0.00  0.00    +0.000 C 
ATOM     23  C   UNL     1      30.508   8.421  49.010  0.00  0.00    +0.000 C 
ENDBRANCH  18  21
ENDBRANCH  17  18
ENDBRANCH  16  17
ENDBRANCH  12  15
ENDBRANCH   1  13
BRANCH   4  24
ATOM     24  N   UNL     1      21.369   1.692  52.725  0.00  0.00    +0.000 N 
ATOM     25  H   UNL     1      20.765   2.145  53.357  0.00  0.00    +0.000 HD
BRANCH  24  26
ATOM     26  C   UNL     1      21.143   1.904  51.347  0.00  0.00    +0.000 A 
ATOM     27  C   UNL     1      21.288   0.852  50.431  0.00  0.00    +0.000 A 
ATOM     28  C   UNL     1      21.116   1.071  49.060  0.00  0.00    +0.000 A 
ATOM     29  C   UNL     1      20.825   2.350  48.596  0.00  0.00    +0.000 A 
ATOM     30  F   UNL     1      20.670   2.539  47.277  0.00  0.00    +0.000 F 
ATOM     31  C   UNL     1      20.710   3.412  49.485  0.00  0.00    +0.000 A 
ATOM     32 CL   UNL     1      20.378   5.005  48.921  0.00  0.00    +0.000 Cl
ATOM     33  C   UNL     1      20.876   3.191  50.851  0.00  0.00    +0.000 A 
ENDBRANCH  24  26
ENDBRANCH   4  24
BRANCH  10  34
ATOM     34  O   UNL     1      27.861   1.516  52.387  0.00  0.00    +0.000 OA
BRANCH  34  35
ATOM     35  C   UNL     1      28.653   1.587  53.557  0.00  0.00    +0.000 C 
ATOM     36  F   UNL     1      29.780   0.844  53.427  0.00  0.00    +0.000 F 
ATOM     37  F   UNL     1      29.049   2.869  53.749  0.00  0.00    +0.000 F 
ENDBRANCH  34  35
ENDBRANCH  10  34
TORSDOF 9
ENDMDL
MODEL 3
REMARK VINA RESULT:    -8.487      3.579      6.197
REMARK INTER + INTRA:         -14.843
REMARK INTER:                 -13.759
REMARK INTRA:                  -1.084
REMARK UNBOUND:                -1.892
REMARK  Name = 
REMARK  9 active torsions:
REMARK  status: ('A' for Active; 'I' for Inactive)
REMARK    1  A    between atoms: C_2  and  C_3
REMARK    2  A    between atoms: C_4  and  C_5
REMARK    3  A    between atoms: C_5  and  N_6
REMARK    4  A    between atoms: N_6  and  C_7
REMARK    5  A    between atoms: N_10  and  C_11
REMARK    6  A    between atoms: C_14  and  N_15
REMARK    7  A    between atoms: N_15  and  C_16
REMARK    8  A    between atoms: C_29  and  O_30
REMARK    9  A    between atoms: O_30  and  C_31
REMARK                            x       y       z     vdW  Elec       q    Type
REMARK                         _______ _______ _______ _____ _____    ______ ____
ROOT
ATOM      1  C   UNL     1      25.337   2.484  52.023  0.00  0.00    +0.000 A 
ATOM      2  C   UNL     1      23.988   2.213  52.304  0.00  0.00    +0.000 A 
ATOM      3  C   UNL     1      23.605   1.072  53.050  0.00  0.00    +0.000 A 
ATOM      4  C   UNL     1      22.284   0.702  53.365  0.00  0.00    +0.000 A 
ATOM      5  N   UNL     1      22.003  -0.372  54.138  0.00  0.00    +0.000 NA
ATOM      6  C   UNL     1      23.045  -1.079  54.580  0.00  0.00    +0.000 A 
ATOM      7  N   UNL     1      24.329  -0.833  54.319  0.00  0.00    +0.000 NA
ATOM      8  C   UNL     1      24.598   0.233  53.562  0.00  0.00    +0.000 A 
ATOM      9  C   UNL     1      25.926   0.515  53.271  0.00  0.00    +0.000 A 
ATOM     10  C   UNL     1      26.319   1.598  52.473  0.00  0.00    +0.000 A 
ENDROOT
BRANCH   1  13
ATOM     11  O   UNL     1      24.759   2.985  49.211  0.00  0.00    +0.000 OA
ATOM     12  C   UNL     1      25.396   3.755  49.916  0.00  0.00    +0.000 C 
ATOM     13  N   UNL     1      25.650   3.623  51.265  0.00  0.00    +0.000 N 
ATOM     14  H   UNL     1      26.078   4.378  51.728  0.00  0.00    +0.000 HD
BRANCH  12  15
ATOM     15  C   UNL     1      25.994   5.004  49.392  0.00  0.00    +0.000 C 
ATOM     16  C   UNL     1      27.108   5.030  48.640  0.00  0.00    +0.000 C 
BRANCH  16  17
ATOM     17  C   UNL     1      27.836   6.285  48.238  0.00  0.00    +0.000 C 
BRANCH  17  18
ATOM     18  N   UNL     1      27.849   7.257  49.335  0.00  0.00    +0.000 N 
ATOM     19  H   UNL     1      28.821   7.485  49.545  0.00  0.00    +0.000 HD
ATOM     20  H   UNL     1      27.361   6.817  50.115  0.00  0.00    +0.000 HD
BRANCH  18  21
ATOM     21  C   UNL     1      27.141   8.504  49.059  0.00  0.00    +0.000 C 
ATOM     22  C   UNL     1      27.378   9.634  50.027  0.00  0.00    +0.000 C 
ATOM     23  C   UNL     1      26.046   8.946  49.990  0.00  0.00    +0.000 C 
ENDBRANCH  18  21
ENDBRANCH  17  18
ENDBRANCH  16  17
ENDBRANCH  12  15
ENDBRANCH   1  13
BRANCH   4  24
ATOM     24  N   UNL     1      21.197   1.443  52.832  0.00  0.00    +0.000 N 
ATOM     25  H   UNL     1      21.196   2.415  52.984  0.00  0.00    +0.000 HD
BRANCH  24  26
ATOM     26  C   UNL     1      20.117   0.902  52.100  0.00  0.00    +0.000 A 
ATOM     27  C   UNL     1      19.840   1.352  50.800  0.00  0.00    +0.000 A 
ATOM     28  C   UNL     1      18.740   0.856  50.093  0.00  0.00    +0.000 A 
ATOM     29  C   UNL     1      17.895  -0.073  50.692  0.00  0.00    +0.000 A 
ATOM     30  F   UNL     1      16.842  -0.531  49.998  0.00  0.00    +0.000 F 
ATOM     31  C   UNL     1      18.133  -0.506  51.991  0.00  0.00    +0.000 A 
ATOM     32 CL   UNL     1      17.079  -1.634  52.754  0.00  0.00    +0.000 Cl
ATOM     33  C   UNL     1      19.233  -0.015  52.692  0.00  0.00    +0.000 A 
ENDBRANCH  24  26
ENDBRANCH   4  24
BRANCH  10  34
ATOM     34  O   UNL     1      27.678   1.694  52.371  0.00  0.00    +0.000 OA
BRANCH  34  35
ATOM     35  C   UNL     1      28.495   1.683  53.526  0.00  0.00    +0.000 C 
ATOM     36  F   UNL     1      29.520   0.806  53.388  0.00  0.00    +0.000 F 
ATOM     37  F   UNL     1      29.049   2.910  53.690  0.00  0.00    +0.000 F 
ENDBRANCH  34  35
ENDBRANCH  10  34
TORSDOF 9
ENDMDL
MODEL 4
REMARK VINA RESULT:    -8.330      3.504      7.048
REMARK INTER + INTRA:         -14.605
REMARK INTER:                 -13.241
REMARK INTRA:                  -1.365
REMARK UNBOUND:                -1.892
REMARK  Name = 
REMARK  9 active torsions:
REMARK  status: ('A' for Active; 'I' for Inactive)
REMARK    1  A    between atoms: C_2  and  C_3
REMARK    2  A    between atoms: C_4  and  C_5
REMARK    3  A    between atoms: C_5  and  N_6
REMARK    4  A    between atoms: N_6  and  C_7
REMARK    5  A    between atoms: N_10  and  C_11
REMARK    6  A    between atoms: C_14  and  N_15
REMARK    7  A    between atoms: N_15  and  C_16
REMARK    8  A    between atoms: C_29  and  O_30
REMARK    9  A    between atoms: O_30  and  C_31
REMARK                            x       y       z     vdW  Elec       q    Type
REMARK                         _______ _______ _______ _____ _____    ______ ____
ROOT
ATOM      1  C   UNL     1      23.788   1.042  52.301  0.00  0.00    +0.000 A 
ATOM      2  C   UNL     1      23.686   1.890  51.186  0.00  0.00    +0.000 A 
ATOM      3  C   UNL     1      22.540   1.881  50.355  0.00  0.00    +0.000 A 
ATOM      4  C   UNL     1      22.352   2.673  49.207  0.00  0.00    +0.000 A 
ATOM      5  N   UNL     1      21.200   2.651  48.499  0.00  0.00    +0.000 NA
ATOM      6  C   UNL     1      20.246   1.827  48.935  0.00  0.00    +0.000 A 
ATOM      7  N   UNL     1      20.330   1.015  49.990  0.00  0.00    +0.000 NA
ATOM      8  C   UNL     1      21.468   1.049  50.687  0.00  0.00    +0.000 A 
ATOM      9  C   UNL     1      21.588   0.215  51.791  0.00  0.00    +0.000 A 
ATOM     10  C   UNL     1      22.743   0.158  52.583  0.00  0.00    +0.000 A 
ENDROOT
BRANCH   1  13
ATOM     11  O   UNL     1      24.980   3.354  53.613  0.00  0.00    +0.000 OA
ATOM     12  C   UNL     1      25.490   2.243  53.612  0.00  0.00    +0.000 C 
ATOM     13  N   UNL     1      24.956   1.089  53.077  0.00  0.00    +0.000 N 
ATOM     14  H   UNL     1      25.425   0.242  53.251  0.00  0.00    +0.000 HD
BRANCH  12  15
ATOM     15  C   UNL     1      26.806   1.969  54.232  0.00  0.00    +0.000 C 
ATOM     16  C   UNL     1      27.975   2.323  53.671  0.00  0.00    +0.000 C 
BRANCH  16  17
ATOM     17  C   UNL     1      29.328   1.911  54.187  0.00  0.00    +0.000 C 
BRANCH  17  18
ATOM     18  N   UNL     1      29.797   0.697  53.513  0.00  0.00    +0.000 N 
ATOM     19  H   UNL     1      30.812   0.656  53.603  0.00  0.00    +0.000 HD
ATOM     20  H   UNL     1      29.481   0.764  52.545  0.00  0.00    +0.000 HD
BRANCH  18  21
ATOM     21  C   UNL     1      29.245  -0.548  54.038  0.00  0.00    +0.000 C 
ATOM     22  C   UNL     1      29.641  -1.811  53.317  0.00  0.00    +0.000 C 
ATOM     23  C   UNL     1      28.233  -1.304  53.221  0.00  0.00    +0.000 C 
ENDBRANCH  18  21
ENDBRANCH  17  18
ENDBRANCH  16  17
ENDBRANCH  12  15
ENDBRANCH   1  13
BRANCH   4  24
ATOM     24  N   UNL     1      23.408   3.498  48.737  0.00  0.00    +0.000 N 
ATOM     25  H   UNL     1      23.924   3.174  47.963  0.00  0.00    +0.000 HD
BRANCH  24  26
ATOM     26  C   UNL     1      23.781   4.745  49.286  0.00  0.00    +0.000 A 
ATOM     27  C   UNL     1      22.854   5.512  50.006  0.00  0.00    +0.000 A 
ATOM     28  C   UNL     1      23.204   6.771  50.506  0.00  0.00    +0.000 A 
ATOM     29  C   UNL     1      24.476   7.281  50.264  0.00  0.00    +0.000 A 
ATOM     30  F   UNL     1      24.788   8.493  50.747  0.00  0.00    +0.000 F 
ATOM     31  C   UNL     1      25.397   6.550  49.524  0.00  0.00    +0.000 A 
ATOM     32 CL   UNL     1      26.965   7.182  49.193  0.00  0.00    +0.000 Cl
ATOM     33  C   UNL     1      25.048   5.294  49.031  0.00  0.00    +0.000 A 
ENDBRANCH  24  26
ENDBRANCH   4  24
BRANCH  10  34
ATOM     34  O   UNL     1      22.601  -0.701  53.636  0.00  0.00    +0.000 OA
BRANCH  34  35
ATOM     35  C   UNL     1      21.353  -0.856  54.284  0.00  0.00    +0.000 C 
ATOM     36  F   UNL     1      21.268  -2.065  54.892  0.00  0.00    +0.000 F 
ATOM     37  F   UNL     1      21.239   0.081  55.257  0.00  0.00    +0.000 F 
ENDBRANCH  34  35
ENDBRANCH  10  34
TORSDOF 9
ENDMDL
MODEL 5
REMARK VINA RESULT:    -8.328      3.248      6.204
REMARK INTER + INTRA:         -14.602
REMARK INTER:                 -13.874
REMARK INTRA:                  -0.728
REMARK UNBOUND:                -1.892
REMARK  Name = 
REMARK  9 active torsions:
REMARK  status: ('A' for Active; 'I' for Inactive)
REMARK    1  A    between atoms: C_2  and  C_3
REMARK    2  A    between atoms: C_4  and  C_5
REMARK    3  A    between atoms: C_5  and  N_6
REMARK    4  A    between atoms: N_6  and  C_7
REMARK    5  A    between atoms: N_10  and  C_11
REMARK    6  A    between atoms: C_14  and  N_15
REMARK    7  A    between atoms: N_15  and  C_16
REMARK    8  A    between atoms: C_29  and  O_30
REMARK    9  A    between atoms: O_30  and  C_31
REMARK                            x       y       z     vdW  Elec       q    Type
REMARK                         _______ _______ _______ _____ _____    ______ ____
ROOT
ATOM      1  C   UNL     1      26.214   2.647  51.563  0.00  0.00    +0.000 A 
ATOM      2  C   UNL     1      24.897   2.195  51.381  0.00  0.00    +0.000 A 
ATOM      3  C   UNL     1      24.365   1.139  52.160  0.00  0.00    +0.000 A 
ATOM      4  C   UNL     1      23.069   0.601  52.040  0.00  0.00    +0.000 A 
ATOM      5  N   UNL     1      22.614  -0.367  52.866  0.00  0.00    +0.000 NA
ATOM      6  C   UNL     1      23.460  -0.803  53.801  0.00  0.00    +0.000 A 
ATOM      7  N   UNL     1      24.713  -0.384  53.984  0.00  0.00    +0.000 NA
ATOM      8  C   UNL     1      25.152   0.578  53.169  0.00  0.00    +0.000 A 
ATOM      9  C   UNL     1      26.453   1.035  53.332  0.00  0.00    +0.000 A 
ATOM     10  C   UNL     1      27.020   2.028  52.522  0.00  0.00    +0.000 A 
ENDROOT
BRANCH   1  13
ATOM     11  O   UNL     1      24.844   3.957  49.351  0.00  0.00    +0.000 OA
ATOM     12  C   UNL     1      25.995   4.210  49.675  0.00  0.00    +0.000 C 
ATOM     13  N   UNL     1      26.686   3.687  50.748  0.00  0.00    +0.000 N 
ATOM     14  H   UNL     1      27.569   4.068  50.957  0.00  0.00    +0.000 HD
BRANCH  12  15
ATOM     15  C   UNL     1      26.838   5.174  48.933  0.00  0.00    +0.000 C 
ATOM     16  C   UNL     1      28.116   4.931  48.594  0.00  0.00    +0.000 C 
BRANCH  16  17
ATOM     17  C   UNL     1      29.049   5.949  47.995  0.00  0.00    +0.000 C 
BRANCH  17  18
ATOM     18  N   UNL     1      29.401   6.979  48.978  0.00  0.00    +0.000 N 
ATOM     19  H   UNL     1      30.409   6.945  49.125  0.00  0.00    +0.000 HD
ATOM     20  H   UNL     1      28.863   6.769  49.819  0.00  0.00    +0.000 HD
BRANCH  18  21
ATOM     21  C   UNL     1      29.044   8.341  48.593  0.00  0.00    +0.000 C 
ATOM     22  C   UNL     1      29.935   9.437  49.118  0.00  0.00    +0.000 C 
ATOM     23  C   UNL     1      28.538   9.291  49.643  0.00  0.00    +0.000 C 
ENDBRANCH  18  21
ENDBRANCH  17  18
ENDBRANCH  16  17
ENDBRANCH  12  15
ENDBRANCH   1  13
BRANCH   4  24
ATOM     24  N   UNL     1      22.213   1.047  50.999  0.00  0.00    +0.000 N 
ATOM     25  H   UNL     1      22.521   0.913  50.073  0.00  0.00    +0.000 HD
BRANCH  24  26
ATOM     26  C   UNL     1      20.956   1.666  51.179  0.00  0.00    +0.000 A 
ATOM     27  C   UNL     1      20.873   3.032  51.488  0.00  0.00    +0.000 A 
ATOM     28  C   UNL     1      19.633   3.637  51.719  0.00  0.00    +0.000 A 
ATOM     29  C   UNL     1      18.472   2.872  51.669  0.00  0.00    +0.000 A 
ATOM     30  F   UNL     1      17.293   3.471  51.900  0.00  0.00    +0.000 F 
ATOM     31  C   UNL     1      18.537   1.511  51.397  0.00  0.00    +0.000 A 
ATOM     32 CL   UNL     1      17.109   0.548  51.361  0.00  0.00    +0.000 Cl
ATOM     33  C   UNL     1      19.772   0.912  51.162  0.00  0.00    +0.000 A 
ENDBRANCH  24  26
ENDBRANCH   4  24
BRANCH  10  34
ATOM     34  O   UNL     1      28.293   2.341  52.908  0.00  0.00    +0.000 OA
BRANCH  34  35
ATOM     35  C   UNL     1      28.938   1.616  53.938  0.00  0.00    +0.000 C 
ATOM     36  F   UNL     1      29.756   0.665  53.423  0.00  0.00    +0.000 F 
ATOM     37  F   UNL     1      29.721   2.461  54.653  0.00  0.00    +0.000 F 
ENDBRANCH  34  35
ENDBRANCH  10  34
TORSDOF 9
ENDMDL
MODEL 6
REMARK VINA RESULT:    -8.319      2.786      5.678
REMARK INTER + INTRA:         -14.587
REMARK INTER:                 -13.260
REMARK INTRA:                  -1.327
REMARK UNBOUND:                -1.892
REMARK  Name = 
REMARK  9 active torsions:
REMARK  status: ('A' for Active; 'I' for Inactive)
REMARK    1  A    between atoms: C_2  and  C_3
REMARK    2  A    between atoms: C_4  and  C_5
REMARK    3  A    between atoms: C_5  and  N_6
REMARK    4  A    between atoms: N_6  and  C_7
REMARK    5  A    between atoms: N_10  and  C_11
REMARK    6  A    between atoms: C_14  and  N_15
REMARK    7  A    between atoms: N_15  and  C_16
REMARK    8  A    between atoms: C_29  and  O_30
REMARK    9  A    between atoms: O_30  and  C_31
REMARK                            x       y       z     vdW  Elec       q    Type
REMARK                         _______ _______ _______ _____ _____    ______ ____
ROOT
ATOM      1  C   UNL     1      25.605   2.409  51.968  0.00  0.00    +0.000 A 
ATOM      2  C   UNL     1      24.227   2.271  52.201  0.00  0.00    +0.000 A 
ATOM      3  C   UNL     1      23.710   1.181  52.943  0.00  0.00    +0.000 A 
ATOM      4  C   UNL     1      22.349   0.943  53.212  0.00  0.00    +0.000 A 
ATOM      5  N   UNL     1      21.938  -0.089  53.982  0.00  0.00    +0.000 NA
ATOM      6  C   UNL     1      22.890  -0.887  54.470  0.00  0.00    +0.000 A 
ATOM      7  N   UNL     1      24.201  -0.768  54.255  0.00  0.00    +0.000 NA
ATOM      8  C   UNL     1      24.598   0.258  53.499  0.00  0.00    +0.000 A 
ATOM      9  C   UNL     1      25.957   0.408  53.255  0.00  0.00    +0.000 A 
ATOM     10  C   UNL     1      26.480   1.439  52.463  0.00  0.00    +0.000 A 
ENDROOT
BRANCH   1  13
ATOM     11  O   UNL     1      24.765   3.210  49.296  0.00  0.00    +0.000 OA
ATOM     12  C   UNL     1      25.648   3.777  49.923  0.00  0.00    +0.000 C 
ATOM     13  N   UNL     1      26.053   3.504  51.213  0.00  0.00    +0.000 N 
ATOM     14  H   UNL     1      26.698   4.117  51.632  0.00  0.00    +0.000 HD
BRANCH  12  15
ATOM     15  C   UNL     1      26.429   4.902  49.359  0.00  0.00    +0.000 C 
ATOM     16  C   UNL     1      27.562   4.735  48.656  0.00  0.00    +0.000 C 
BRANCH  16  17
ATOM     17  C   UNL     1      28.467   5.856  48.219  0.00  0.00    +0.000 C 
BRANCH  17  18
ATOM     18  N   UNL     1      28.180   7.083  48.967  0.00  0.00    +0.000 N 
ATOM     19  H   UNL     1      29.031   7.364  49.454  0.00  0.00    +0.000 HD
ATOM     20  H   UNL     1      27.409   6.862  49.598  0.00  0.00    +0.000 HD
BRANCH  18  21
ATOM     21  C   UNL     1      27.732   8.208  48.152  0.00  0.00    +0.000 C 
ATOM     22  C   UNL     1      26.883   9.241  48.848  0.00  0.00    +0.000 C 
ATOM     23  C   UNL     1      26.270   8.336  47.820  0.00  0.00    +0.000 C 
ENDBRANCH  18  21
ENDBRANCH  17  18
ENDBRANCH  16  17
ENDBRANCH  12  15
ENDBRANCH   1  13
BRANCH   4  24
ATOM     24  N   UNL     1      21.357   1.778  52.631  0.00  0.00    +0.000 N 
ATOM     25  H   UNL     1      20.747   2.247  53.245  0.00  0.00    +0.000 HD
BRANCH  24  26
ATOM     26  C   UNL     1      21.173   1.992  51.247  0.00  0.00    +0.000 A 
ATOM     27  C   UNL     1      21.283   0.926  50.341  0.00  0.00    +0.000 A 
ATOM     28  C   UNL     1      21.154   1.144  48.965  0.00  0.00    +0.000 A 
ATOM     29  C   UNL     1      20.941   2.433  48.486  0.00  0.00    +0.000 A 
ATOM     30  F   UNL     1      20.827   2.620  47.163  0.00  0.00    +0.000 F 
ATOM     31  C   UNL     1      20.863   3.506  49.366  0.00  0.00    +0.000 A 
ATOM     32 CL   UNL     1      20.630   5.110  48.784  0.00  0.00    +0.000 Cl
ATOM     33  C   UNL     1      20.987   3.287  50.736  0.00  0.00    +0.000 A 
ENDBRANCH  24  26
ENDBRANCH   4  24
BRANCH  10  34
ATOM     34  O   UNL     1      27.845   1.404  52.412  0.00  0.00    +0.000 OA
BRANCH  34  35
ATOM     35  C   UNL     1      28.620   1.533  53.588  0.00  0.00    +0.000 C 
ATOM     36  F   UNL     1      29.747   0.782  53.513  0.00  0.00    +0.000 F 
ATOM     37  F   UNL     1      29.017   2.822  53.720  0.00  0.00    +0.000 F 
ENDBRANCH  34  35
ENDBRANCH  10  34
TORSDOF 9
ENDMDL
MODEL 7
REMARK VINA RESULT:    -8.120      3.468      7.100
REMARK INTER + INTRA:         -14.285
REMARK INTER:                 -13.263
REMARK INTRA:                  -1.022
REMARK UNBOUND:                -1.892
REMARK  Name = 
REMARK  9 active torsions:
REMARK  status: ('A' for Active; 'I' for Inactive)
REMARK    1  A    between atoms: C_2  and  C_3
REMARK    2  A    between atoms: C_4  and  C_5
REMARK    3  A    between atoms: C_5  and  N_6
REMARK    4  A    between atoms: N_6  and  C_7
REMARK    5  A    between atoms: N_10  and  C_11
REMARK    6  A    between atoms: C_14  and  N_15
REMARK    7  A    between atoms: N_15  and  C_16
REMARK    8  A    between atoms: C_29  and  O_30
REMARK    9  A    between atoms: O_30  and  C_31
REMARK                            x       y       z     vdW  Elec       q    Type
REMARK                         _______ _______ _______ _____ _____    ______ ____
ROOT
ATOM      1  C   UNL     1      22.748   3.178  51.975  0.00  0.00    +0.000 A 
ATOM      2  C   UNL     1      23.429   4.390  51.776  0.00  0.00    +0.000 A 
ATOM      3  C   UNL     1      22.774   5.524  51.237  0.00  0.00    +0.000 A 
ATOM      4  C   UNL     1      23.371   6.773  50.981  0.00  0.00    +0.000 A 
ATOM      5  N   UNL     1      22.661   7.828  50.523  0.00  0.00    +0.000 NA
ATOM      6  C   UNL     1      21.359   7.627  50.310  0.00  0.00    +0.000 A 
ATOM      7  N   UNL     1      20.702   6.481  50.493  0.00  0.00    +0.000 NA
ATOM      8  C   UNL     1      21.408   5.446  50.953  0.00  0.00    +0.000 A 
ATOM      9  C   UNL     1      20.752   4.239  51.152  0.00  0.00    +0.000 A 
ATOM     10  C   UNL     1      21.401   3.085  51.615  0.00  0.00    +0.000 A 
ENDROOT
BRANCH   1  13
ATOM     11  O   UNL     1      25.142   3.222  53.634  0.00  0.00    +0.000 OA
ATOM     12  C   UNL     1      24.625   2.193  53.225  0.00  0.00    +0.000 C 
ATOM     13  N   UNL     1      23.457   2.086  52.498  0.00  0.00    +0.000 N 
ATOM     14  H   UNL     1      23.098   1.185  52.336  0.00  0.00    +0.000 HD
BRANCH  12  15
ATOM     15  C   UNL     1      25.201   0.854  53.484  0.00  0.00    +0.000 C 
ATOM     16  C   UNL     1      25.868   0.145  52.558  0.00  0.00    +0.000 C 
BRANCH  16  17
ATOM     17  C   UNL     1      26.315  -1.282  52.734  0.00  0.00    +0.000 C 
BRANCH  17  18
ATOM     18  N   UNL     1      27.484  -1.359  53.615  0.00  0.00    +0.000 N 
ATOM     19  H   UNL     1      27.771  -2.336  53.676  0.00  0.00    +0.000 HD
ATOM     20  H   UNL     1      27.196  -0.967  54.511  0.00  0.00    +0.000 HD
BRANCH  18  21
ATOM     21  C   UNL     1      28.636  -0.576  53.176  0.00  0.00    +0.000 C 
ATOM     22  C   UNL     1      29.962  -0.938  53.791  0.00  0.00    +0.000 C 
ATOM     23  C   UNL     1      29.300   0.359  54.149  0.00  0.00    +0.000 C 
ENDBRANCH  18  21
ENDBRANCH  17  18
ENDBRANCH  16  17
ENDBRANCH  12  15
ENDBRANCH   1  13
BRANCH   4  24
ATOM     24  N   UNL     1      24.770   6.938  51.164  0.00  0.00    +0.000 N 
ATOM     25  H   UNL     1      25.084   7.139  52.075  0.00  0.00    +0.000 HD
BRANCH  24  26
ATOM     26  C   UNL     1      25.747   6.836  50.149  0.00  0.00    +0.000 A 
ATOM     27  C   UNL     1      26.034   5.596  49.559  0.00  0.00    +0.000 A 
ATOM     28  C   UNL     1      27.038   5.483  48.592  0.00  0.00    +0.000 A 
ATOM     29  C   UNL     1      27.778   6.604  48.228  0.00  0.00    +0.000 A 
ATOM     30  F   UNL     1      28.740   6.471  47.303  0.00  0.00    +0.000 F 
ATOM     31  C   UNL     1      27.530   7.834  48.825  0.00  0.00    +0.000 A 
ATOM     32 CL   UNL     1      28.457   9.223  48.406  0.00  0.00    +0.000 Cl
ATOM     33  C   UNL     1      26.526   7.946  49.786  0.00  0.00    +0.000 A 
ENDBRANCH  24  26
ENDBRANCH   4  24
BRANCH  10  34
ATOM     34  O   UNL     1      20.536   2.040  51.776  0.00  0.00    +0.000 OA
BRANCH  34  35
ATOM     35  C   UNL     1      20.433   1.025  50.796  0.00  0.00    +0.000 C 
ATOM     36  F   UNL     1      21.494   1.056  49.951  0.00  0.00    +0.000 F 
ATOM     37  F   UNL     1      20.453  -0.185  51.406  0.00  0.00    +0.000 F 
ENDBRANCH  34  35
ENDBRANCH  10  34
TORSDOF 9
ENDMDL
MODEL 8
REMARK VINA RESULT:    -8.011      4.141      9.377
REMARK INTER + INTRA:         -14.118
REMARK INTER:                 -12.405
REMARK INTRA:                  -1.713
REMARK UNBOUND:                -1.892
REMARK  Name = 
REMARK  9 active torsions:
REMARK  status: ('A' for Active; 'I' for Inactive)
REMARK    1  A    between atoms: C_2  and  C_3
REMARK    2  A    between atoms: C_4  and  C_5
REMARK    3  A    between atoms: C_5  and  N_6
REMARK    4  A    between atoms: N_6  and  C_7
REMARK    5  A    between atoms: N_10  and  C_11
REMARK    6  A    between atoms: C_14  and  N_15
REMARK    7  A    between atoms: N_15  and  C_16
REMARK    8  A    between atoms: C_29  and  O_30
REMARK    9  A    between atoms: O_30  and  C_31
REMARK                            x       y       z     vdW  Elec       q    Type
REMARK                         _______ _______ _______ _____ _____    ______ ____
ROOT
ATOM      1  C   UNL     1      22.651   0.392  52.042  0.00  0.00    +0.000 A 
ATOM      2  C   UNL     1      23.404   1.368  51.370  0.00  0.00    +0.000 A 
ATOM      3  C   UNL     1      24.731   1.674  51.759  0.00  0.00    +0.000 A 
ATOM      4  C   UNL     1      25.558   2.646  51.165  0.00  0.00    +0.000 A 
ATOM      5  N   UNL     1      26.839   2.836  51.555  0.00  0.00    +0.000 NA
ATOM      6  C   UNL     1      27.283   2.060  52.545  0.00  0.00    +0.000 A 
ATOM      7  N   UNL     1      26.579   1.131  53.193  0.00  0.00    +0.000 NA
ATOM      8  C   UNL     1      25.318   0.946  52.797  0.00  0.00    +0.000 A 
ATOM      9  C   UNL     1      24.557  -0.013  53.453  0.00  0.00    +0.000 A 
ATOM     10  C   UNL     1      23.219  -0.278  53.129  0.00  0.00    +0.000 A 
ENDROOT
BRANCH   1  13
ATOM     11  O   UNL     1      20.236   1.863  52.740  0.00  0.00    +0.000 OA
ATOM     12  C   UNL     1      20.234   0.856  52.049  0.00  0.00    +0.000 C 
ATOM     13  N   UNL     1      21.336   0.147  51.618  0.00  0.00    +0.000 N 
ATOM     14  H   UNL     1      21.192  -0.579  50.969  0.00  0.00    +0.000 HD
BRANCH  12  15
ATOM     15  C   UNL     1      18.988   0.241  51.539  0.00  0.00    +0.000 C 
ATOM     16  C   UNL     1      17.841   0.207  52.239  0.00  0.00    +0.000 C 
BRANCH  16  17
ATOM     17  C   UNL     1      16.611  -0.556  51.825  0.00  0.00    +0.000 C 
BRANCH  17  18
ATOM     18  N   UNL     1      16.245  -1.549  52.841  0.00  0.00    +0.000 N 
ATOM     19  H   UNL     1      15.232  -1.667  52.817  0.00  0.00    +0.000 HD
ATOM     20  H   UNL     1      16.588  -1.189  53.731  0.00  0.00    +0.000 HD
BRANCH  18  21
ATOM     21  C   UNL     1      16.859  -2.861  52.665  0.00  0.00    +0.000 C 
ATOM     22  C   UNL     1      16.146  -4.023  53.307  0.00  0.00    +0.000 C 
ATOM     23  C   UNL     1      17.461  -3.554  53.856  0.00  0.00    +0.000 C 
ENDBRANCH  18  21
ENDBRANCH  17  18
ENDBRANCH  16  17
ENDBRANCH  12  15
ENDBRANCH   1  13
BRANCH   4  24
ATOM     24  N   UNL     1      25.036   3.494  50.152  0.00  0.00    +0.000 N 
ATOM     25  H   UNL     1      24.458   3.080  49.472  0.00  0.00    +0.000 HD
BRANCH  24  26
ATOM     26  C   UNL     1      25.277   4.881  50.039  0.00  0.00    +0.000 A 
ATOM     27  C   UNL     1      24.551   5.795  50.816  0.00  0.00    +0.000 A 
ATOM     28  C   UNL     1      24.750   7.172  50.669  0.00  0.00    +0.000 A 
ATOM     29  C   UNL     1      25.657   7.642  49.724  0.00  0.00    +0.000 A 
ATOM     30  F   UNL     1      25.828   8.967  49.595  0.00  0.00    +0.000 F 
ATOM     31  C   UNL     1      26.362   6.753  48.922  0.00  0.00    +0.000 A 
ATOM     32 CL   UNL     1      27.466   7.322  47.729  0.00  0.00    +0.000 Cl
ATOM     33  C   UNL     1      26.166   5.381  49.073  0.00  0.00    +0.000 A 
ENDBRANCH  24  26
ENDBRANCH   4  24
BRANCH  10  34
ATOM     34  O   UNL     1      22.701  -1.295  53.880  0.00  0.00    +0.000 OA
BRANCH  34  35
ATOM     35  C   UNL     1      21.780  -1.033  54.922  0.00  0.00    +0.000 C 
ATOM     36  F   UNL     1      21.520   0.295  55.019  0.00  0.00    +0.000 F 
ATOM     37  F   UNL     1      20.603  -1.642  54.637  0.00  0.00    +0.000 F 
ENDBRANCH  34  35
ENDBRANCH  10  34
TORSDOF 9
ENDMDL
MODEL 9
REMARK VINA RESULT:    -7.957      3.497      7.361
REMARK INTER + INTRA:         -14.035
REMARK INTER:                 -12.652
REMARK INTRA:                  -1.384
REMARK UNBOUND:                -1.892
REMARK  Name = 
REMARK  9 active torsions:
REMARK  status: ('A' for Active; 'I' for Inactive)
REMARK    1  A    between atoms: C_2  and  C_3
REMARK    2  A    between atoms: C_4  and  C_5
REMARK    3  A    between atoms: C_5  and  N_6
REMARK    4  A    between atoms: N_6  and  C_7
REMARK    5  A    between atoms: N_10  and  C_11
REMARK    6  A    between atoms: C_14  and  N_15
REMARK    7  A    between atoms: N_15  and  C_16
REMARK    8  A    between atoms: C_29  and  O_30
REMARK    9  A    between atoms: O_30  and  C_31
REMARK                            x       y       z     vdW  Elec       q    Type
REMARK                         _______ _______ _______ _____ _____    ______ ____
ROOT
ATOM      1  C   UNL     1      23.515   3.196  52.655  0.00  0.00    +0.000 A 
ATOM      2  C   UNL     1      23.601   4.540  52.260  0.00  0.00    +0.000 A 
ATOM      3  C   UNL     1      22.573   5.156  51.506  0.00  0.00    +0.000 A 
ATOM      4  C   UNL     1      22.575   6.486  51.045  0.00  0.00    +0.000 A 
ATOM      5  N   UNL     1      21.524   7.019  50.383  0.00  0.00    +0.000 NA
ATOM      6  C   UNL     1      20.480   6.215  50.172  0.00  0.00    +0.000 A 
ATOM      7  N   UNL     1      20.385   4.937  50.540  0.00  0.00    +0.000 NA
ATOM      8  C   UNL     1      21.424   4.421  51.200  0.00  0.00    +0.000 A 
ATOM      9  C   UNL     1      21.358   3.091  51.596  0.00  0.00    +0.000 A 
ATOM     10  C   UNL     1      22.398   2.445  52.279  0.00  0.00    +0.000 A 
ENDROOT
BRANCH   1  13
ATOM     11  O   UNL     1      26.292   2.879  51.834  0.00  0.00    +0.000 OA
ATOM     12  C   UNL     1      25.853   2.468  52.899  0.00  0.00    +0.000 C 
ATOM     13  N   UNL     1      24.575   2.641  53.388  0.00  0.00    +0.000 N 
ATOM     14  H   UNL     1      24.394   2.356  54.312  0.00  0.00    +0.000 HD
BRANCH  12  15
ATOM     15  C   UNL     1      26.682   1.710  53.863  0.00  0.00    +0.000 C 
ATOM     16  C   UNL     1      28.022   1.637  53.787  0.00  0.00    +0.000 C 
BRANCH  16  17
ATOM     17  C   UNL     1      28.877   0.740  54.642  0.00  0.00    +0.000 C 
BRANCH  17  18
ATOM     18  N   UNL     1      28.442  -0.656  54.534  0.00  0.00    +0.000 N 
ATOM     19  H   UNL     1      27.465  -0.707  54.820  0.00  0.00    +0.000 HD
ATOM     20  H   UNL     1      29.066  -1.198  55.133  0.00  0.00    +0.000 HD
BRANCH  18  21
ATOM     21  C   UNL     1      28.555  -1.231  53.197  0.00  0.00    +0.000 C 
ATOM     22  C   UNL     1      27.339  -1.953  52.677  0.00  0.00    +0.000 C 
ATOM     23  C   UNL     1      28.571  -2.727  53.042  0.00  0.00    +0.000 C 
ENDBRANCH  18  21
ENDBRANCH  17  18
ENDBRANCH  16  17
ENDBRANCH  12  15
ENDBRANCH   1  13
BRANCH   4  24
ATOM     24  N   UNL     1      23.725   7.297  51.236  0.00  0.00    +0.000 N 
ATOM     25  H   UNL     1      23.803   7.773  52.094  0.00  0.00    +0.000 HD
BRANCH  24  26
ATOM     26  C   UNL     1      24.765   7.479  50.298  0.00  0.00    +0.000 A 
ATOM     27  C   UNL     1      24.919   8.704  49.633  0.00  0.00    +0.000 A 
ATOM     28  C   UNL     1      25.915   8.870  48.665  0.00  0.00    +0.000 A 
ATOM     29  C   UNL     1      26.745   7.803  48.338  0.00  0.00    +0.000 A 
ATOM     30  F   UNL     1      27.690   7.982  47.402  0.00  0.00    +0.000 F 
ATOM     31  C   UNL     1      26.587   6.571  48.962  0.00  0.00    +0.000 A 
ATOM     32 CL   UNL     1      27.589   5.234  48.545  0.00  0.00    +0.000 Cl
ATOM     33  C   UNL     1      25.597   6.409  49.929  0.00  0.00    +0.000 A 
ENDBRANCH  24  26
ENDBRANCH   4  24
BRANCH  10  34
ATOM     34  O   UNL     1      22.077   1.157  52.601  0.00  0.00    +0.000 OA
BRANCH  34  35
ATOM     35  C   UNL     1      20.995   0.498  51.971  0.00  0.00    +0.000 C 
ATOM     36  F   UNL     1      21.396  -0.105  50.824  0.00  0.00    +0.000 F 
ATOM     37  F   UNL     1      20.534  -0.480  52.788  0.00  0.00    +0.000 F 
ENDBRANCH  34  35
ENDBRANCH  10  34
TORSDOF 9
ENDMDL
