MODEL 1
REMARK VINA RESULT:   -10.598      0.000      0.000
REMARK INTER + INTRA:         -13.671
REMARK INTER:                 -13.386
REMARK INTRA:                  -0.285
REMARK UNBOUND:                -0.285
REMARK  Name = 
REMARK  10 active torsions:
REMARK  status: ('A' for Active; 'I' for Inactive)
REMARK    1  A    between atoms: C_1  and  O_2
REMARK    2  A    between atoms: O_2  and  C_3
REMARK    3  A    between atoms: C_6  and  C_7
REMARK    4  A    between atoms: C_11  and  O_12
REMARK    5  A    between atoms: C_13  and  O_14
REMARK    6  A    between atoms: O_14  and  C_15
REMARK    7  A    between atoms: C_27  and  O_28
REMARK    8  A    between atoms: C_29  and  O_30
REMARK    9  A    between atoms: O_30  and  C_31
REMARK   10  A    between atoms: C_36  and  O_37
REMARK                            x       y       z     vdW  Elec       q    Type
REMARK                         _______ _______ _______ _____ _____    ______ ____
ROOT
ATOM      1  C   UNL     1      23.422   1.720  52.619  0.00  0.00    +0.000 A 
ATOM      2  C   UNL     1      22.928   3.133  52.584  0.00  0.00    +0.000 A 
ATOM      3  C   UNL     1      21.617   3.898  52.328  0.00  0.00    +0.000 A 
ATOM      4  C   UNL     1      20.338   3.419  52.587  0.00  0.00    +0.000 A 
ATOM      5  C   UNL     1      19.278   3.817  51.728  0.00  0.00    +0.000 A 
ATOM      6  C   UNL     1      19.464   4.669  50.624  0.00  0.00    +0.000 A 
ATOM      7  C   UNL     1      20.655   5.358  50.541  0.00  0.00    +0.000 A 
ATOM      8  C   UNL     1      21.698   4.981  51.397  0.00  0.00    +0.000 A 
ATOM      9  O   UNL     1      22.943   5.589  51.093  0.00  0.00    +0.000 OA
ATOM     10  C   UNL     1      24.058   4.755  51.099  0.00  0.00    +0.000 A 
ATOM     11  O   UNL     1      25.196   5.174  50.949  0.00  0.00    +0.000 OA
ATOM     12  C   UNL     1      23.699   3.418  51.448  0.00  0.00    +0.000 A 
ATOM     13  N   UNL     1      23.289   2.359  50.590  0.00  0.00    +0.000 N 
ATOM     14  C   UNL     1      22.932   2.470  49.237  0.00  0.00    +0.000 A 
ATOM     15  C   UNL     1      22.192   1.485  48.695  0.00  0.00    +0.000 A 
ATOM     16  C   UNL     1      21.024   1.189  49.575  0.00  0.00    +0.000 A 
ATOM     17  C   UNL     1      19.747   1.357  49.037  0.00  0.00    +0.000 A 
ATOM     18  C   UNL     1      18.645   1.090  49.822  0.00  0.00    +0.000 A 
ATOM     19  C   UNL     1      18.791   0.483  51.074  0.00  0.00    +0.000 A 
ATOM     20  C   UNL     1      20.108   0.399  51.660  0.00  0.00    +0.000 A 
ATOM     21  C   UNL     1      21.262   0.872  50.955  0.00  0.00    +0.000 A 
ATOM     22  C   UNL     1      22.738   1.283  51.434  0.00  0.00    +0.000 A 
ENDROOT
BRANCH   1  26
ATOM     23  C   UNL     1      27.987   0.819  53.056  0.00  0.00    +0.000 A 
ATOM     24  C   UNL     1      27.129  -0.012  52.382  0.00  0.00    +0.000 A 
ATOM     25  C   UNL     1      25.733   0.328  52.189  0.00  0.00    +0.000 A 
ATOM     26  C   UNL     1      25.111   1.525  52.678  0.00  0.00    +0.000 A 
ATOM     27  C   UNL     1      26.007   2.367  53.378  0.00  0.00    +0.000 A 
ATOM     28  C   UNL     1      27.395   2.022  53.555  0.00  0.00    +0.000 A 
BRANCH  23  30
ATOM     29  C   UNL     1      29.883  -0.599  53.696  0.00  0.00    +0.000 C 
ATOM     30  O   UNL     1      29.304   0.673  53.405  0.00  0.00    +0.000 OA
ENDBRANCH  23  30
BRANCH  28  31
ATOM     31  O   UNL     1      28.223   2.857  54.276  0.00  0.00    +0.000 OA
ATOM     32  H   UNL     1      27.995   3.103  55.150  0.00  0.00    +0.000 HD
ENDBRANCH  28  31
ENDBRANCH   1  26
BRANCH   5  33
ATOM     33  O   UNL     1      18.024   3.280  51.882  0.00  0.00    +0.000 OA
ATOM     34  H   UNL     1      17.426   3.654  52.497  0.00  0.00    +0.000 HD
ENDBRANCH   5  33
BRANCH   6  35
ATOM     35  O   UNL     1      18.466   4.702  49.684  0.00  0.00    +0.000 OA
ATOM     36  C   UNL     1      18.833   4.915  48.317  0.00  0.00    +0.000 C 
ENDBRANCH   6  35
BRANCH  18  37
ATOM     37  O   UNL     1      17.419   1.583  49.418  0.00  0.00    +0.000 OA
ATOM     38  H   UNL     1      17.337   2.479  49.159  0.00  0.00    +0.000 HD
ENDBRANCH  18  37
BRANCH  19  39
ATOM     39  O   UNL     1      17.692  -0.221  51.507  0.00  0.00    +0.000 OA
ATOM     40  C   UNL     1      17.734  -1.052  52.661  0.00  0.00    +0.000 C 
ENDBRANCH  19  39
TORSDOF 7
ENDMDL
MODEL 2
REMARK VINA RESULT:    -9.251      2.043      4.243
REMARK INTER + INTRA:         -11.969
REMARK INTER:                 -11.644
REMARK INTRA:                  -0.325
REMARK UNBOUND:                -0.285
REMARK  Name = 
REMARK  10 active torsions:
REMARK  status: ('A' for Active; 'I' for Inactive)
REMARK    1  A    between atoms: C_1  and  O_2
REMARK    2  A    between atoms: O_2  and  C_3
REMARK    3  A    between atoms: C_6  and  C_7
REMARK    4  A    between atoms: C_11  and  O_12
REMARK    5  A    between atoms: C_13  and  O_14
REMARK    6  A    between atoms: O_14  and  C_15
REMARK    7  A    between atoms: C_27  and  O_28
REMARK    8  A    between atoms: C_29  and  O_30
REMARK    9  A    between atoms: O_30  and  C_31
REMARK   10  A    between atoms: C_36  and  O_37
REMARK                            x       y       z     vdW  Elec       q    Type
REMARK                         _______ _______ _______ _____ _____    ______ ____
ROOT
ATOM      1  C   UNL     1      23.691   1.708  50.819  0.00  0.00    +0.000 A 
ATOM      2  C   UNL     1      22.360   1.031  50.924  0.00  0.00    +0.000 A 
ATOM      3  C   UNL     1      20.974   1.085  50.255  0.00  0.00    +0.000 A 
ATOM      4  C   UNL     1      20.727   1.446  48.935  0.00  0.00    +0.000 A 
ATOM      5  C   UNL     1      19.518   2.128  48.633  0.00  0.00    +0.000 A 
ATOM      6  C   UNL     1      18.562   2.462  49.610  0.00  0.00    +0.000 A 
ATOM      7  C   UNL     1      18.673   1.862  50.846  0.00  0.00    +0.000 A 
ATOM      8  C   UNL     1      19.856   1.174  51.142  0.00  0.00    +0.000 A 
ATOM      9  O   UNL     1      19.971   0.783  52.501  0.00  0.00    +0.000 OA
ATOM     10  C   UNL     1      21.204   1.008  53.109  0.00  0.00    +0.000 A 
ATOM     11  O   UNL     1      21.460   0.628  54.242  0.00  0.00    +0.000 OA
ATOM     12  C   UNL     1      22.132   1.586  52.191  0.00  0.00    +0.000 A 
ATOM     13  N   UNL     1      22.359   2.963  51.911  0.00  0.00    +0.000 N 
ATOM     14  C   UNL     1      21.557   4.042  52.315  0.00  0.00    +0.000 A 
ATOM     15  C   UNL     1      21.670   5.202  51.642  0.00  0.00    +0.000 A 
ATOM     16  C   UNL     1      21.589   4.944  50.175  0.00  0.00    +0.000 A 
ATOM     17  C   UNL     1      20.555   5.556  49.464  0.00  0.00    +0.000 A 
ATOM     18  C   UNL     1      20.452   5.341  48.106  0.00  0.00    +0.000 A 
ATOM     19  C   UNL     1      21.467   4.675  47.410  0.00  0.00    +0.000 A 
ATOM     20  C   UNL     1      22.479   3.968  48.158  0.00  0.00    +0.000 A 
ATOM     21  C   UNL     1      22.489   3.989  49.590  0.00  0.00    +0.000 A 
ATOM     22  C   UNL     1      23.181   3.045  50.690  0.00  0.00    +0.000 A 
ENDROOT
BRANCH   1  26
ATOM     23  C   UNL     1      27.036   0.958  53.994  0.00  0.00    +0.000 A 
ATOM     24  C   UNL     1      26.746   2.205  53.505  0.00  0.00    +0.000 A 
ATOM     25  C   UNL     1      25.650   2.426  52.582  0.00  0.00    +0.000 A 
ATOM     26  C   UNL     1      24.786   1.396  52.083  0.00  0.00    +0.000 A 
ATOM     27  C   UNL     1      25.103   0.113  52.589  0.00  0.00    +0.000 A 
ATOM     28  C   UNL     1      26.190  -0.092  53.515  0.00  0.00    +0.000 A 
BRANCH  23  30
ATOM     29  C   UNL     1      29.382   0.332  54.346  0.00  0.00    +0.000 C 
ATOM     30  O   UNL     1      28.044   0.515  54.810  0.00  0.00    +0.000 OA
ENDBRANCH  23  30
BRANCH  28  31
ATOM     31  O   UNL     1      26.486  -1.365  53.954  0.00  0.00    +0.000 OA
ATOM     32  H   UNL     1      27.014  -1.486  54.718  0.00  0.00    +0.000 HD
ENDBRANCH  28  31
ENDBRANCH   1  26
BRANCH   5  33
ATOM     33  O   UNL     1      19.287   2.599  47.365  0.00  0.00    +0.000 OA
ATOM     34  H   UNL     1      19.964   2.555  46.718  0.00  0.00    +0.000 HD
ENDBRANCH   5  33
BRANCH   6  35
ATOM     35  O   UNL     1      17.625   3.405  49.272  0.00  0.00    +0.000 OA
ATOM     36  C   UNL     1      17.125   4.261  50.304  0.00  0.00    +0.000 C 
ENDBRANCH   6  35
BRANCH  18  37
ATOM     37  O   UNL     1      19.258   5.649  47.484  0.00  0.00    +0.000 OA
ATOM     38  H   UNL     1      18.776   4.980  47.038  0.00  0.00    +0.000 HD
ENDBRANCH  18  37
BRANCH  19  39
ATOM     39  O   UNL     1      21.553   4.988  46.074  0.00  0.00    +0.000 OA
ATOM     40  C   UNL     1      21.571   3.986  45.063  0.00  0.00    +0.000 C 
ENDBRANCH  19  39
TORSDOF 7
ENDMDL
MODEL 3
REMARK VINA RESULT:    -9.093      1.834      2.496
REMARK INTER + INTRA:         -11.770
REMARK INTER:                 -11.470
REMARK INTRA:                  -0.300
REMARK UNBOUND:                -0.285
REMARK  Name = 
REMARK  10 active torsions:
REMARK  status: ('A' for Active; 'I' for Inactive)
REMARK    1  A    between atoms: C_1  and  O_2
REMARK    2  A    between atoms: O_2  and  C_3
REMARK    3  A    between atoms: C_6  and  C_7
REMARK    4  A    between atoms: C_11  and  O_12
REMARK    5  A    between atoms: C_13  and  O_14
REMARK    6  A    between atoms: O_14  and  C_15
REMARK    7  A    between atoms: C_27  and  O_28
REMARK    8  A    between atoms: C_29  and  O_30
REMARK    9  A    between atoms: O_30  and  C_31
REMARK   10  A    between atoms: C_36  and  O_37
REMARK                            x       y       z     vdW  Elec       q    Type
REMARK                         _______ _______ _______ _____ _____    ______ ____
ROOT
ATOM      1  C   UNL     1      23.808   2.930  52.435  0.00  0.00    +0.000 A 
ATOM      2  C   UNL     1      24.156   4.196  51.713  0.00  0.00    +0.000 A 
ATOM      3  C   UNL     1      23.444   5.351  50.986  0.00  0.00    +0.000 A 
ATOM      4  C   UNL     1      22.169   5.824  51.275  0.00  0.00    +0.000 A 
ATOM      5  C   UNL     1      21.371   6.317  50.208  0.00  0.00    +0.000 A 
ATOM      6  C   UNL     1      21.809   6.343  48.871  0.00  0.00    +0.000 A 
ATOM      7  C   UNL     1      23.153   6.146  48.634  0.00  0.00    +0.000 A 
ATOM      8  C   UNL     1      23.947   5.675  49.687  0.00  0.00    +0.000 A 
ATOM      9  O   UNL     1      25.256   5.293  49.297  0.00  0.00    +0.000 OA
ATOM     10  C   UNL     1      25.730   4.088  49.810  0.00  0.00    +0.000 A 
ATOM     11  O   UNL     1      26.873   3.697  49.627  0.00  0.00    +0.000 OA
ATOM     12  C   UNL     1      24.767   3.482  50.672  0.00  0.00    +0.000 A 
ATOM     13  N   UNL     1      23.721   2.579  50.334  0.00  0.00    +0.000 N 
ATOM     14  C   UNL     1      23.270   2.266  49.041  0.00  0.00    +0.000 A 
ATOM     15  C   UNL     1      22.040   1.734  48.911  0.00  0.00    +0.000 A 
ATOM     16  C   UNL     1      21.055   2.547  49.682  0.00  0.00    +0.000 A 
ATOM     17  C   UNL     1      20.004   3.134  48.976  0.00  0.00    +0.000 A 
ATOM     18  C   UNL     1      19.074   3.890  49.657  0.00  0.00    +0.000 A 
ATOM     19  C   UNL     1      19.066   3.920  51.057  0.00  0.00    +0.000 A 
ATOM     20  C   UNL     1      20.202   3.391  51.772  0.00  0.00    +0.000 A 
ATOM     21  C   UNL     1      21.299   2.789  51.077  0.00  0.00    +0.000 A 
ATOM     22  C   UNL     1      22.818   2.479  51.496  0.00  0.00    +0.000 A 
ENDROOT
BRANCH   1  26
ATOM     23  C   UNL     1      27.107  -0.129  53.696  0.00  0.00    +0.000 A 
ATOM     24  C   UNL     1      25.959  -0.504  53.047  0.00  0.00    +0.000 A 
ATOM     25  C   UNL     1      24.987   0.472  52.593  0.00  0.00    +0.000 A 
ATOM     26  C   UNL     1      25.108   1.889  52.778  0.00  0.00    +0.000 A 
ATOM     27  C   UNL     1      26.294   2.259  53.455  0.00  0.00    +0.000 A 
ATOM     28  C   UNL     1      27.257   1.280  53.894  0.00  0.00    +0.000 A 
BRANCH  23  30
ATOM     29  C   UNL     1      29.182  -1.420  53.487  0.00  0.00    +0.000 C 
ATOM     30  O   UNL     1      28.115  -0.868  54.258  0.00  0.00    +0.000 OA
ENDBRANCH  23  30
BRANCH  28  31
ATOM     31  O   UNL     1      28.382   1.685  54.583  0.00  0.00    +0.000 OA
ATOM     32  H   UNL     1      28.326   1.882  55.497  0.00  0.00    +0.000 HD
ENDBRANCH  28  31
ENDBRANCH   1  26
BRANCH   5  33
ATOM     33  O   UNL     1      20.069   6.689  50.432  0.00  0.00    +0.000 OA
ATOM     34  H   UNL     1      19.685   7.379  49.929  0.00  0.00    +0.000 HD
ENDBRANCH   5  33
BRANCH   6  35
ATOM     35  O   UNL     1      20.853   6.507  47.902  0.00  0.00    +0.000 OA
ATOM     36  C   UNL     1      21.051   5.860  46.641  0.00  0.00    +0.000 C 
ENDBRANCH   6  35
BRANCH  18  37
ATOM     37  O   UNL     1      18.262   4.739  48.931  0.00  0.00    +0.000 OA
ATOM     38  H   UNL     1      18.637   5.458  48.462  0.00  0.00    +0.000 HD
ENDBRANCH  18  37
BRANCH  19  39
ATOM     39  O   UNL     1      17.846   4.209  51.621  0.00  0.00    +0.000 OA
ATOM     40  C   UNL     1      16.820   3.231  51.746  0.00  0.00    +0.000 C 
ENDBRANCH  19  39
TORSDOF 7
ENDMDL
MODEL 4
REMARK VINA RESULT:    -9.043      2.452      5.115
REMARK INTER + INTRA:         -11.707
REMARK INTER:                 -11.504
REMARK INTRA:                  -0.203
REMARK UNBOUND:                -0.285
REMARK  Name = 
REMARK  10 active torsions:
REMARK  status: ('A' for Active; 'I' for Inactive)
REMARK    1  A    between atoms: C_1  and  O_2
REMARK    2  A    between atoms: O_2  and  C_3
REMARK    3  A    between atoms: C_6  and  C_7
REMARK    4  A    between atoms: C_11  and  O_12
REMARK    5  A    between atoms: C_13  and  O_14
REMARK    6  A    between atoms: O_14  and  C_15
REMARK    7  A    between atoms: C_27  and  O_28
REMARK    8  A    between atoms: C_29  and  O_30
REMARK    9  A    between atoms: O_30  and  C_31
REMARK   10  A    between atoms: C_36  and  O_37
REMARK                            x       y       z     vdW  Elec       q    Type
REMARK                         _______ _______ _______ _____ _____    ______ ____
ROOT
ATOM      1  C   UNL     1      25.362   2.494  50.691  0.00  0.00    +0.000 A 
ATOM      2  C   UNL     1      23.951   2.055  50.450  0.00  0.00    +0.000 A 
ATOM      3  C   UNL     1      22.692   2.546  49.712  0.00  0.00    +0.000 A 
ATOM      4  C   UNL     1      22.683   3.328  48.562  0.00  0.00    +0.000 A 
ATOM      5  C   UNL     1      21.629   4.266  48.389  0.00  0.00    +0.000 A 
ATOM      6  C   UNL     1      20.599   4.444  49.330  0.00  0.00    +0.000 A 
ATOM      7  C   UNL     1      20.455   3.486  50.311  0.00  0.00    +0.000 A 
ATOM      8  C   UNL     1      21.482   2.549  50.475  0.00  0.00    +0.000 A 
ATOM      9  O   UNL     1      21.353   1.749  51.639  0.00  0.00    +0.000 OA
ATOM     10  C   UNL     1      22.507   1.564  52.396  0.00  0.00    +0.000 A 
ATOM     11  O   UNL     1      22.549   0.819  53.365  0.00  0.00    +0.000 OA
ATOM     12  C   UNL     1      23.624   2.227  51.802  0.00  0.00    +0.000 A 
ATOM     13  N   UNL     1      24.069   3.564  52.005  0.00  0.00    +0.000 N 
ATOM     14  C   UNL     1      23.368   4.589  52.661  0.00  0.00    +0.000 A 
ATOM     15  C   UNL     1      23.728   5.862  52.412  0.00  0.00    +0.000 A 
ATOM     16  C   UNL     1      23.820   6.081  50.939  0.00  0.00    +0.000 A 
ATOM     17  C   UNL     1      22.987   7.047  50.373  0.00  0.00    +0.000 A 
ATOM     18  C   UNL     1      23.047   7.277  49.015  0.00  0.00    +0.000 A 
ATOM     19  C   UNL     1      24.052   6.692  48.236  0.00  0.00    +0.000 A 
ATOM     20  C   UNL     1      24.846   5.630  48.805  0.00  0.00    +0.000 A 
ATOM     21  C   UNL     1      24.658   5.211  50.161  0.00  0.00    +0.000 A 
ATOM     22  C   UNL     1      25.057   3.873  50.955  0.00  0.00    +0.000 A 
ENDROOT
BRANCH   1  26
ATOM     23  C   UNL     1      28.085   0.162  53.687  0.00  0.00    +0.000 A 
ATOM     24  C   UNL     1      28.235   1.502  53.440  0.00  0.00    +0.000 A 
ATOM     25  C   UNL     1      27.327   2.223  52.568  0.00  0.00    +0.000 A 
ATOM     26  C   UNL     1      26.217   1.629  51.880  0.00  0.00    +0.000 A 
ATOM     27  C   UNL     1      26.081   0.245  52.139  0.00  0.00    +0.000 A 
ATOM     28  C   UNL     1      26.985  -0.458  53.015  0.00  0.00    +0.000 A 
BRANCH  23  30
ATOM     29  C   UNL     1      30.113  -1.191  53.955  0.00  0.00    +0.000 C 
ATOM     30  O   UNL     1      28.847  -0.717  54.412  0.00  0.00    +0.000 OA
ENDBRANCH  23  30
BRANCH  28  31
ATOM     31  O   UNL     1      26.835  -1.815  53.210  0.00  0.00    +0.000 OA
ATOM     32  H   UNL     1      26.978  -2.185  54.058  0.00  0.00    +0.000 HD
ENDBRANCH  28  31
ENDBRANCH   1  26
BRANCH   5  33
ATOM     33  O   UNL     1      21.643   5.133  47.326  0.00  0.00    +0.000 OA
ATOM     34  H   UNL     1      22.414   5.630  47.137  0.00  0.00    +0.000 HD
ENDBRANCH   5  33
BRANCH   6  35
ATOM     35  O   UNL     1      19.853   5.591  49.231  0.00  0.00    +0.000 OA
ATOM     36  C   UNL     1      18.474   5.471  48.865  0.00  0.00    +0.000 C 
ENDBRANCH   6  35
BRANCH  18  37
ATOM     37  O   UNL     1      22.004   7.959  48.420  0.00  0.00    +0.000 OA
ATOM     38  H   UNL     1      21.446   7.521  47.809  0.00  0.00    +0.000 HD
ENDBRANCH  18  37
BRANCH  19  39
ATOM     39  O   UNL     1      24.365   7.378  47.086  0.00  0.00    +0.000 OA
ATOM     40  C   UNL     1      25.587   8.092  46.941  0.00  0.00    +0.000 C 
ENDBRANCH  19  39
TORSDOF 7
ENDMDL
MODEL 5
REMARK VINA RESULT:    -8.498      2.794      7.061
REMARK INTER + INTRA:         -11.019
REMARK INTER:                 -10.898
REMARK INTRA:                  -0.120
REMARK UNBOUND:                -0.285
REMARK  Name = 
REMARK  10 active torsions:
REMARK  status: ('A' for Active; 'I' for Inactive)
REMARK    1  A    between atoms: C_1  and  O_2
REMARK    2  A    between atoms: O_2  and  C_3
REMARK    3  A    between atoms: C_6  and  C_7
REMARK    4  A    between atoms: C_11  and  O_12
REMARK    5  A    between atoms: C_13  and  O_14
REMARK    6  A    between atoms: O_14  and  C_15
REMARK    7  A    between atoms: C_27  and  O_28
REMARK    8  A    between atoms: C_29  and  O_30
REMARK    9  A    between atoms: O_30  and  C_31
REMARK   10  A    between atoms: C_36  and  O_37
REMARK                            x       y       z     vdW  Elec       q    Type
REMARK                         _______ _______ _______ _____ _____    ______ ____
ROOT
ATOM      1  C   UNL     1      19.533   1.976  51.862  0.00  0.00    +0.000 A 
ATOM      2  C   UNL     1      20.825   2.000  52.619  0.00  0.00    +0.000 A 
ATOM      3  C   UNL     1      22.092   2.869  52.725  0.00  0.00    +0.000 A 
ATOM      4  C   UNL     1      22.153   4.240  52.507  0.00  0.00    +0.000 A 
ATOM      5  C   UNL     1      23.337   4.785  51.943  0.00  0.00    +0.000 A 
ATOM      6  C   UNL     1      24.450   4.000  51.589  0.00  0.00    +0.000 A 
ATOM      7  C   UNL     1      24.497   2.706  52.063  0.00  0.00    +0.000 A 
ATOM      8  C   UNL     1      23.337   2.169  52.635  0.00  0.00    +0.000 A 
ATOM      9  O   UNL     1      23.410   0.776  52.890  0.00  0.00    +0.000 OA
ATOM     10  C   UNL     1      22.300   0.019  52.523  0.00  0.00    +0.000 A 
ATOM     11  O   UNL     1      22.200  -1.173  52.777  0.00  0.00    +0.000 OA
ATOM     12  C   UNL     1      21.275   0.844  51.967  0.00  0.00    +0.000 A 
ATOM     13  N   UNL     1      21.086   1.226  50.610  0.00  0.00    +0.000 N 
ATOM     14  C   UNL     1      22.000   1.057  49.557  0.00  0.00    +0.000 A 
ATOM     15  C   UNL     1      21.850   1.821  48.459  0.00  0.00    +0.000 A 
ATOM     16  C   UNL     1      21.690   3.250  48.857  0.00  0.00    +0.000 A 
ATOM     17  C   UNL     1      22.635   4.164  48.388  0.00  0.00    +0.000 A 
ATOM     18  C   UNL     1      22.515   5.493  48.734  0.00  0.00    +0.000 A 
ATOM     19  C   UNL     1      21.370   5.960  49.388  0.00  0.00    +0.000 A 
ATOM     20  C   UNL     1      20.447   5.003  49.949  0.00  0.00    +0.000 A 
ATOM     21  C   UNL     1      20.658   3.595  49.795  0.00  0.00    +0.000 A 
ATOM     22  C   UNL     1      20.092   2.315  50.583  0.00  0.00    +0.000 A 
ENDROOT
BRANCH   1  26
ATOM     23  C   UNL     1      16.688  -1.706  52.288  0.00  0.00    +0.000 A 
ATOM     24  C   UNL     1      16.563  -0.787  51.278  0.00  0.00    +0.000 A 
ATOM     25  C   UNL     1      17.507   0.303  51.118  0.00  0.00    +0.000 A 
ATOM     26  C   UNL     1      18.630   0.539  51.978  0.00  0.00    +0.000 A 
ATOM     27  C   UNL     1      18.741  -0.413  53.019  0.00  0.00    +0.000 A 
ATOM     28  C   UNL     1      17.801  -1.497  53.162  0.00  0.00    +0.000 A 
BRANCH  23  30
ATOM     29  C   UNL     1      14.879  -3.291  51.808  0.00  0.00    +0.000 C 
ATOM     30  O   UNL     1      15.894  -2.759  52.659  0.00  0.00    +0.000 OA
ENDBRANCH  23  30
BRANCH  28  31
ATOM     31  O   UNL     1      17.928  -2.380  54.213  0.00  0.00    +0.000 OA
ATOM     32  H   UNL     1      17.531  -3.227  54.164  0.00  0.00    +0.000 HD
ENDBRANCH  28  31
ENDBRANCH   1  26
BRANCH   5  33
ATOM     33  O   UNL     1      23.396   6.115  51.608  0.00  0.00    +0.000 OA
ATOM     34  H   UNL     1      22.606   6.597  51.463  0.00  0.00    +0.000 HD
ENDBRANCH   5  33
BRANCH   6  35
ATOM     35  O   UNL     1      25.375   4.566  50.749  0.00  0.00    +0.000 OA
ATOM     36  C   UNL     1      26.105   3.706  49.869  0.00  0.00    +0.000 C 
ENDBRANCH   6  35
BRANCH  18  37
ATOM     37  O   UNL     1      23.615   6.313  48.570  0.00  0.00    +0.000 OA
ATOM     38  H   UNL     1      23.813   6.964  49.214  0.00  0.00    +0.000 HD
ENDBRANCH  18  37
BRANCH  19  39
ATOM     39  O   UNL     1      21.097   7.294  49.194  0.00  0.00    +0.000 OA
ATOM     40  C   UNL     1      20.355   7.758  48.073  0.00  0.00    +0.000 C 
ENDBRANCH  19  39
TORSDOF 7
ENDMDL
MODEL 6
REMARK VINA RESULT:    -8.393      2.846      6.330
REMARK INTER + INTRA:         -10.886
REMARK INTER:                 -10.730
REMARK INTRA:                  -0.156
REMARK UNBOUND:                -0.285
REMARK  Name = 
REMARK  10 active torsions:
REMARK  status: ('A' for Active; 'I' for Inactive)
REMARK    1  A    between atoms: C_1  and  O_2
REMARK    2  A    between atoms: O_2  and  C_3
REMARK    3  A    between atoms: C_6  and  C_7
REMARK    4  A    between atoms: C_11  and  O_12
REMARK    5  A    between atoms: C_13  and  O_14
REMARK    6  A    between atoms: O_14  and  C_15
REMARK    7  A    between atoms: C_27  and  O_28
REMARK    8  A    between atoms: C_29  and  O_30
REMARK    9  A    between atoms: O_30  and  C_31
REMARK   10  A    between atoms: C_36  and  O_37
REMARK                            x       y       z     vdW  Elec       q    Type
REMARK                         _______ _______ _______ _____ _____    ______ ____
ROOT
ATOM      1  C   UNL     1      21.055   2.905  51.931  0.00  0.00    +0.000 A 
ATOM      2  C   UNL     1      22.503   3.182  52.195  0.00  0.00    +0.000 A 
ATOM      3  C   UNL     1      23.568   4.234  51.836  0.00  0.00    +0.000 A 
ATOM      4  C   UNL     1      23.322   5.577  51.575  0.00  0.00    +0.000 A 
ATOM      5  C   UNL     1      24.140   6.244  50.624  0.00  0.00    +0.000 A 
ATOM      6  C   UNL     1      25.182   5.606  49.927  0.00  0.00    +0.000 A 
ATOM      7  C   UNL     1      25.601   4.376  50.388  0.00  0.00    +0.000 A 
ATOM      8  C   UNL     1      24.808   3.722  51.339  0.00  0.00    +0.000 A 
ATOM      9  O   UNL     1      25.194   2.380  51.588  0.00  0.00    +0.000 OA
ATOM     10  C   UNL     1      24.168   1.439  51.646  0.00  0.00    +0.000 A 
ATOM     11  O   UNL     1      24.360   0.271  51.949  0.00  0.00    +0.000 OA
ATOM     12  C   UNL     1      22.894   2.056  51.457  0.00  0.00    +0.000 A 
ATOM     13  N   UNL     1      22.198   2.294  50.239  0.00  0.00    +0.000 N 
ATOM     14  C   UNL     1      22.720   2.178  48.941  0.00  0.00    +0.000 A 
ATOM     15  C   UNL     1      22.084   2.820  47.943  0.00  0.00    +0.000 A 
ATOM     16  C   UNL     1      21.831   4.237  48.335  0.00  0.00    +0.000 A 
ATOM     17  C   UNL     1      22.396   5.240  47.546  0.00  0.00    +0.000 A 
ATOM     18  C   UNL     1      22.180   6.560  47.879  0.00  0.00    +0.000 A 
ATOM     19  C   UNL     1      21.260   6.904  48.876  0.00  0.00    +0.000 A 
ATOM     20  C   UNL     1      20.754   5.869  49.744  0.00  0.00    +0.000 A 
ATOM     21  C   UNL     1      21.132   4.500  49.563  0.00  0.00    +0.000 A 
ATOM     22  C   UNL     1      21.086   3.218  50.529  0.00  0.00    +0.000 A 
ENDROOT
BRANCH   1  26
ATOM     23  C   UNL     1      19.147  -1.115  53.356  0.00  0.00    +0.000 A 
ATOM     24  C   UNL     1      18.621  -0.367  52.334  0.00  0.00    +0.000 A 
ATOM     25  C   UNL     1      19.275   0.835  51.855  0.00  0.00    +0.000 A 
ATOM     26  C   UNL     1      20.497   1.365  52.388  0.00  0.00    +0.000 A 
ATOM     27  C   UNL     1      21.023   0.587  53.446  0.00  0.00    +0.000 A 
ATOM     28  C   UNL     1      20.368  -0.612  53.908  0.00  0.00    +0.000 A 
BRANCH  23  30
ATOM     29  C   UNL     1      17.541  -2.960  53.536  0.00  0.00    +0.000 C 
ATOM     30  O   UNL     1      18.676  -2.229  54.000  0.00  0.00    +0.000 OA
ENDBRANCH  23  30
BRANCH  28  31
ATOM     31  O   UNL     1      20.897  -1.319  54.967  0.00  0.00    +0.000 OA
ATOM     32  H   UNL     1      21.282  -2.161  54.823  0.00  0.00    +0.000 HD
ENDBRANCH  28  31
ENDBRANCH   1  26
BRANCH   5  33
ATOM     33  O   UNL     1      23.860   7.536  50.256  0.00  0.00    +0.000 OA
ATOM     34  H   UNL     1      22.983   7.860  50.312  0.00  0.00    +0.000 HD
ENDBRANCH   5  33
BRANCH   6  35
ATOM     35  O   UNL     1      25.663   6.233  48.806  0.00  0.00    +0.000 OA
ATOM     36  C   UNL     1      27.079   6.265  48.605  0.00  0.00    +0.000 C 
ENDBRANCH   6  35
BRANCH  18  37
ATOM     37  O   UNL     1      23.008   7.518  47.325  0.00  0.00    +0.000 OA
ATOM     38  H   UNL     1      23.937   7.438  47.407  0.00  0.00    +0.000 HD
ENDBRANCH  18  37
BRANCH  19  39
ATOM     39  O   UNL     1      20.720   8.163  48.754  0.00  0.00    +0.000 OA
ATOM     40  C   UNL     1      19.510   8.400  48.045  0.00  0.00    +0.000 C 
ENDBRANCH  19  39
TORSDOF 7
ENDMDL
MODEL 7
REMARK VINA RESULT:    -8.304      2.283      8.267
REMARK INTER + INTRA:         -10.774
REMARK INTER:                 -10.509
REMARK INTRA:                  -0.265
REMARK UNBOUND:                -0.285
REMARK  Name = 
REMARK  10 active torsions:
REMARK  status: ('A' for Active; 'I' for Inactive)
REMARK    1  A    between atoms: C_1  and  O_2
REMARK    2  A    between atoms: O_2  and  C_3
REMARK    3  A    between atoms: C_6  and  C_7
REMARK    4  A    between atoms: C_11  and  O_12
REMARK    5  A    between atoms: C_13  and  O_14
REMARK    6  A    between atoms: O_14  and  C_15
REMARK    7  A    between atoms: C_27  and  O_28
REMARK    8  A    between atoms: C_29  and  O_30
REMARK    9  A    between atoms: O_30  and  C_31
REMARK   10  A    between atoms: C_36  and  O_37
REMARK                            x       y       z     vdW  Elec       q    Type
REMARK                         _______ _______ _______ _____ _____    ______ ____
ROOT
ATOM      1  C   UNL     1      19.829   3.937  51.207  0.00  0.00    +0.000 A 
ATOM      2  C   UNL     1      20.320   2.868  52.135  0.00  0.00    +0.000 A 
ATOM      3  C   UNL     1      21.654   2.334  52.687  0.00  0.00    +0.000 A 
ATOM      4  C   UNL     1      22.806   3.086  52.887  0.00  0.00    +0.000 A 
ATOM      5  C   UNL     1      24.067   2.458  52.700  0.00  0.00    +0.000 A 
ATOM      6  C   UNL     1      24.203   1.112  52.316  0.00  0.00    +0.000 A 
ATOM      7  C   UNL     1      23.088   0.306  52.397  0.00  0.00    +0.000 A 
ATOM      8  C   UNL     1      21.844   0.918  52.598  0.00  0.00    +0.000 A 
ATOM      9  O   UNL     1      20.738   0.043  52.448  0.00  0.00    +0.000 OA
ATOM     10  C   UNL     1      19.662   0.524  51.706  0.00  0.00    +0.000 A 
ATOM     11  O   UNL     1      18.615  -0.094  51.586  0.00  0.00    +0.000 OA
ATOM     12  C   UNL     1      19.902   1.858  51.257  0.00  0.00    +0.000 A 
ATOM     13  N   UNL     1      20.532   2.287  50.055  0.00  0.00    +0.000 N 
ATOM     14  C   UNL     1      21.258   1.486  49.159  0.00  0.00    +0.000 A 
ATOM     15  C   UNL     1      22.116   2.094  48.319  0.00  0.00    +0.000 A 
ATOM     16  C   UNL     1      22.987   3.035  49.082  0.00  0.00    +0.000 A 
ATOM     17  C   UNL     1      24.364   2.813  49.053  0.00  0.00    +0.000 A 
ATOM     18  C   UNL     1      25.199   3.665  49.744  0.00  0.00    +0.000 A 
ATOM     19  C   UNL     1      24.702   4.843  50.315  0.00  0.00    +0.000 A 
ATOM     20  C   UNL     1      23.274   5.018  50.421  0.00  0.00    +0.000 A 
ATOM     21  C   UNL     1      22.368   4.038  49.903  0.00  0.00    +0.000 A 
ATOM     22  C   UNL     1      20.818   3.728  50.186  0.00  0.00    +0.000 A 
ENDROOT
BRANCH   1  26
ATOM     23  C   UNL     1      15.355   4.113  49.873  0.00  0.00    +0.000 A 
ATOM     24  C   UNL     1      16.396   4.262  48.993  0.00  0.00    +0.000 A 
ATOM     25  C   UNL     1      17.776   4.122  49.416  0.00  0.00    +0.000 A 
ATOM     26  C   UNL     1      18.192   3.837  50.759  0.00  0.00    +0.000 A 
ATOM     27  C   UNL     1      17.107   3.694  51.655  0.00  0.00    +0.000 A 
ATOM     28  C   UNL     1      15.738   3.826  51.221  0.00  0.00    +0.000 A 
BRANCH  23  30
ATOM     29  C   UNL     1      13.422   5.438  49.149  0.00  0.00    +0.000 C 
ATOM     30  O   UNL     1      14.002   4.261  49.710  0.00  0.00    +0.000 OA
ENDBRANCH  23  30
BRANCH  28  31
ATOM     31  O   UNL     1      14.714   3.715  52.138  0.00  0.00    +0.000 OA
ATOM     32  H   UNL     1      14.314   4.486  52.490  0.00  0.00    +0.000 HD
ENDBRANCH  28  31
ENDBRANCH   1  26
BRANCH   5  33
ATOM     33  O   UNL     1      25.224   3.192  52.778  0.00  0.00    +0.000 OA
ATOM     34  H   UNL     1      25.329   3.958  52.249  0.00  0.00    +0.000 HD
ENDBRANCH   5  33
BRANCH   6  35
ATOM     35  O   UNL     1      25.426   0.719  51.834  0.00  0.00    +0.000 OA
ATOM     36  C   UNL     1      26.172  -0.242  52.587  0.00  0.00    +0.000 C 
ENDBRANCH   6  35
BRANCH  18  37
ATOM     37  O   UNL     1      26.491   3.250  50.002  0.00  0.00    +0.000 OA
ATOM     38  H   UNL     1      27.145   3.313  49.334  0.00  0.00    +0.000 HD
ENDBRANCH  18  37
BRANCH  19  39
ATOM     39  O   UNL     1      25.632   5.844  50.474  0.00  0.00    +0.000 OA
ATOM     40  C   UNL     1      25.270   7.220  50.454  0.00  0.00    +0.000 C 
ENDBRANCH  19  39
TORSDOF 7
ENDMDL
MODEL 8
REMARK VINA RESULT:    -8.166      3.318      5.393
REMARK INTER + INTRA:         -10.599
REMARK INTER:                 -10.448
REMARK INTRA:                  -0.151
REMARK UNBOUND:                -0.285
REMARK  Name = 
REMARK  10 active torsions:
REMARK  status: ('A' for Active; 'I' for Inactive)
REMARK    1  A    between atoms: C_1  and  O_2
REMARK    2  A    between atoms: O_2  and  C_3
REMARK    3  A    between atoms: C_6  and  C_7
REMARK    4  A    between atoms: C_11  and  O_12
REMARK    5  A    between atoms: C_13  and  O_14
REMARK    6  A    between atoms: O_14  and  C_15
REMARK    7  A    between atoms: C_27  and  O_28
REMARK    8  A    between atoms: C_29  and  O_30
REMARK    9  A    between atoms: O_30  and  C_31
REMARK   10  A    between atoms: C_36  and  O_37
REMARK                            x       y       z     vdW  Elec       q    Type
REMARK                         _______ _______ _______ _____ _____    ______ ____
ROOT
ATOM      1  C   UNL     1      23.028   4.265  51.704  0.00  0.00    +0.000 A 
ATOM      2  C   UNL     1      24.208   5.071  51.255  0.00  0.00    +0.000 A 
ATOM      3  C   UNL     1      24.500   6.360  50.465  0.00  0.00    +0.000 A 
ATOM      4  C   UNL     1      23.667   7.471  50.393  0.00  0.00    +0.000 A 
ATOM      5  C   UNL     1      23.642   8.222  49.188  0.00  0.00    +0.000 A 
ATOM      6  C   UNL     1      24.415   7.891  48.061  0.00  0.00    +0.000 A 
ATOM      7  C   UNL     1      25.434   6.977  48.230  0.00  0.00    +0.000 A 
ATOM      8  C   UNL     1      25.474   6.245  49.423  0.00  0.00    +0.000 A 
ATOM      9  O   UNL     1      26.413   5.183  49.418  0.00  0.00    +0.000 OA
ATOM     10  C   UNL     1      25.974   3.963  49.928  0.00  0.00    +0.000 A 
ATOM     11  O   UNL     1      26.715   3.001  50.068  0.00  0.00    +0.000 OA
ATOM     12  C   UNL     1      24.625   4.054  50.387  0.00  0.00    +0.000 A 
ATOM     13  N   UNL     1      23.425   3.835  49.654  0.00  0.00    +0.000 N 
ATOM     14  C   UNL     1      23.307   3.705  48.261  0.00  0.00    +0.000 A 
ATOM     15  C   UNL     1      22.099   3.915  47.706  0.00  0.00    +0.000 A 
ATOM     16  C   UNL     1      21.526   5.195  48.214  0.00  0.00    +0.000 A 
ATOM     17  C   UNL     1      21.241   6.194  47.281  0.00  0.00    +0.000 A 
ATOM     18  C   UNL     1      20.707   7.389  47.716  0.00  0.00    +0.000 A 
ATOM     19  C   UNL     1      20.281   7.540  49.040  0.00  0.00    +0.000 A 
ATOM     20  C   UNL     1      20.662   6.545  50.014  0.00  0.00    +0.000 A 
ATOM     21  C   UNL     1      21.413   5.387  49.633  0.00  0.00    +0.000 A 
ATOM     22  C   UNL     1      22.303   4.342  50.466  0.00  0.00    +0.000 A 
ENDROOT
BRANCH   1  26
ATOM     23  C   UNL     1      23.686   0.115  53.748  0.00  0.00    +0.000 A 
ATOM     24  C   UNL     1      22.505   0.464  53.144  0.00  0.00    +0.000 A 
ATOM     25  C   UNL     1      22.351   1.725  52.445  0.00  0.00    +0.000 A 
ATOM     26  C   UNL     1      23.377   2.720  52.324  0.00  0.00    +0.000 A 
ATOM     27  C   UNL     1      24.585   2.348  52.959  0.00  0.00    +0.000 A 
ATOM     28  C   UNL     1      24.730   1.087  53.643  0.00  0.00    +0.000 A 
BRANCH  23  30
ATOM     29  C   UNL     1      23.128  -1.587  55.424  0.00  0.00    +0.000 C 
ATOM     30  O   UNL     1      24.031  -0.976  54.503  0.00  0.00    +0.000 OA
ENDBRANCH  23  30
BRANCH  28  31
ATOM     31  O   UNL     1      25.915   0.783  54.279  0.00  0.00    +0.000 OA
ATOM     32  H   UNL     1      25.915   0.558  55.188  0.00  0.00    +0.000 HD
ENDBRANCH  28  31
ENDBRANCH   1  26
BRANCH   5  33
ATOM     33  O   UNL     1      22.754   9.258  49.037  0.00  0.00    +0.000 OA
ATOM     34  H   UNL     1      23.063  10.112  48.808  0.00  0.00    +0.000 HD
ENDBRANCH   5  33
BRANCH   6  35
ATOM     35  O   UNL     1      24.057   8.461  46.866  0.00  0.00    +0.000 OA
ATOM     36  C   UNL     1      24.864   8.184  45.716  0.00  0.00    +0.000 C 
ENDBRANCH   6  35
BRANCH  18  37
ATOM     37  O   UNL     1      20.757   8.475  46.865  0.00  0.00    +0.000 OA
ATOM     38  H   UNL     1      21.580   8.772  46.531  0.00  0.00    +0.000 HD
ENDBRANCH  18  37
BRANCH  19  39
ATOM     39  O   UNL     1      19.307   8.492  49.229  0.00  0.00    +0.000 OA
ATOM     40  C   UNL     1      19.493   9.602  50.098  0.00  0.00    +0.000 C 
ENDBRANCH  19  39
TORSDOF 7
ENDMDL
MODEL 9
REMARK VINA RESULT:    -7.732      2.307      8.139
REMARK INTER + INTRA:         -10.052
REMARK INTER:                  -9.920
REMARK INTRA:                  -0.132
REMARK UNBOUND:                -0.285
REMARK  Name = 
REMARK  10 active torsions:
REMARK  status: ('A' for Active; 'I' for Inactive)
REMARK    1  A    between atoms: C_1  and  O_2
REMARK    2  A    between atoms: O_2  and  C_3
REMARK    3  A    between atoms: C_6  and  C_7
REMARK    4  A    between atoms: C_11  and  O_12
REMARK    5  A    between atoms: C_13  and  O_14
REMARK    6  A    between atoms: O_14  and  C_15
REMARK    7  A    between atoms: C_27  and  O_28
REMARK    8  A    between atoms: C_29  and  O_30
REMARK    9  A    between atoms: O_30  and  C_31
REMARK   10  A    between atoms: C_36  and  O_37
REMARK                            x       y       z     vdW  Elec       q    Type
REMARK                         _______ _______ _______ _____ _____    ______ ____
ROOT
ATOM      1  C   UNL     1      19.273   4.150  50.102  0.00  0.00    +0.000 A 
ATOM      2  C   UNL     1      19.834   3.511  51.335  0.00  0.00    +0.000 A 
ATOM      3  C   UNL     1      21.100   3.586  52.208  0.00  0.00    +0.000 A 
ATOM      4  C   UNL     1      21.891   4.715  52.390  0.00  0.00    +0.000 A 
ATOM      5  C   UNL     1      23.289   4.541  52.569  0.00  0.00    +0.000 A 
ATOM      6  C   UNL     1      23.913   3.280  52.564  0.00  0.00    +0.000 A 
ATOM      7  C   UNL     1      23.106   2.167  52.670  0.00  0.00    +0.000 A 
ATOM      8  C   UNL     1      21.724   2.335  52.511  0.00  0.00    +0.000 A 
ATOM      9  O   UNL     1      21.002   1.118  52.415  0.00  0.00    +0.000 OA
ATOM     10  C   UNL     1      20.035   1.048  51.415  0.00  0.00    +0.000 A 
ATOM     11  O   UNL     1      19.281   0.093  51.292  0.00  0.00    +0.000 OA
ATOM     12  C   UNL     1      19.958   2.274  50.687  0.00  0.00    +0.000 A 
ATOM     13  N   UNL     1      20.690   2.663  49.531  0.00  0.00    +0.000 N 
ATOM     14  C   UNL     1      21.811   2.012  48.992  0.00  0.00    +0.000 A 
ATOM     15  C   UNL     1      22.616   2.713  48.171  0.00  0.00    +0.000 A 
ATOM     16  C   UNL     1      22.959   4.023  48.799  0.00  0.00    +0.000 A 
ATOM     17  C   UNL     1      24.306   4.292  49.044  0.00  0.00    +0.000 A 
ATOM     18  C   UNL     1      24.658   5.494  49.620  0.00  0.00    +0.000 A 
ATOM     19  C   UNL     1      23.711   6.510  49.788  0.00  0.00    +0.000 A 
ATOM     20  C   UNL     1      22.313   6.194  49.621  0.00  0.00    +0.000 A 
ATOM     21  C   UNL     1      21.892   4.882  49.231  0.00  0.00    +0.000 A 
ATOM     22  C   UNL     1      20.487   4.111  49.336  0.00  0.00    +0.000 A 
ENDROOT
BRANCH   1  26
ATOM     23  C   UNL     1      15.609   1.721  48.517  0.00  0.00    +0.000 A 
ATOM     24  C   UNL     1      15.744   2.084  49.833  0.00  0.00    +0.000 A 
ATOM     25  C   UNL     1      16.848   2.907  50.287  0.00  0.00    +0.000 A 
ATOM     26  C   UNL     1      17.894   3.405  49.441  0.00  0.00    +0.000 A 
ATOM     27  C   UNL     1      17.745   3.016  48.089  0.00  0.00    +0.000 A 
ATOM     28  C   UNL     1      16.637   2.205  47.648  0.00  0.00    +0.000 A 
BRANCH  23  30
ATOM     29  C   UNL     1      14.350  -0.379  48.383  0.00  0.00    +0.000 C 
ATOM     30  O   UNL     1      14.698   0.913  47.888  0.00  0.00    +0.000 OA
ENDBRANCH  23  30
BRANCH  28  31
ATOM     31  O   UNL     1      16.552   1.820  46.327  0.00  0.00    +0.000 OA
ATOM     32  H   UNL     1      16.768   2.426  45.646  0.00  0.00    +0.000 HD
ENDBRANCH  28  31
ENDBRANCH   1  26
BRANCH   5  33
ATOM     33  O   UNL     1      24.118   5.633  52.639  0.00  0.00    +0.000 OA
ATOM     34  H   UNL     1      23.855   6.447  52.259  0.00  0.00    +0.000 HD
ENDBRANCH   5  33
BRANCH   6  35
ATOM     35  O   UNL     1      25.273   3.255  52.396  0.00  0.00    +0.000 OA
ATOM     36  C   UNL     1      25.853   2.122  51.741  0.00  0.00    +0.000 C 
ENDBRANCH   6  35
BRANCH  18  37
ATOM     37  O   UNL     1      25.918   5.609  50.174  0.00  0.00    +0.000 OA
ATOM     38  H   UNL     1      26.371   4.845  50.473  0.00  0.00    +0.000 HD
ENDBRANCH  18  37
BRANCH  19  39
ATOM     39  O   UNL     1      24.230   7.782  49.833  0.00  0.00    +0.000 OA
ATOM     40  C   UNL     1      24.449   8.551  48.656  0.00  0.00    +0.000 C 
ENDBRANCH  19  39
TORSDOF 7
ENDMDL
