REMARK  Name = 
REMARK  5 active torsions:
REMARK  status: ('A' for Active; 'I' for Inactive)
REMARK    1  A    between atoms: C_1  and  C_2
REMARK    2  A    between atoms: C_3  and  C_4
REMARK    3  A    between atoms: N_6  and  C_7
REMARK    4  A    between atoms: C_7  and  C_8
REMARK    5  A    between atoms: C_8  and  C_9
REMARK                            x       y       z     vdW  Elec       q    Type
REMARK                         _______ _______ _______ _____ _____    ______ ____
ROOT
ATOM      1  C   UNL     1      -1.656   0.821   1.346  0.00  0.00    +0.000 C 
ATOM      2  O   UNL     1      -2.603   1.365   1.924  0.00  0.00    +0.000 OA
ATOM      3  N   UNL     1      -1.656  -0.539   1.136  0.00  0.00    +0.000 N 
ATOM      4  H   UNL     1      -0.874  -0.932   0.684  0.00  0.00    +0.000 HD
ENDROOT
BRANCH   1   7
ATOM      5  C   UNL     1       1.438   0.170  -0.203  0.00  0.00    +0.000 C 
ATOM      6  C   UNL     1       0.703   1.407   0.201  0.00  0.00    +0.000 A 
ATOM      7  C   UNL     1      -0.520   1.619   0.845  0.00  0.00    +0.000 A 
ATOM      8  N   UNL     1      -0.573   3.002   1.068  0.00  0.00    +0.000 N 
ATOM      9  C   UNL     1       0.494   3.659   0.503  0.00  0.00    +0.000 A 
ATOM     10  C   UNL     1       0.831   5.018   0.462  0.00  0.00    +0.000 A 
ATOM     11  C   UNL     1       2.001   5.366  -0.223  0.00  0.00    +0.000 A 
ATOM     12  F   UNL     1       2.369   6.653  -0.276  0.00  0.00    +0.000 F 
ATOM     13  C   UNL     1       2.799   4.422  -0.851  0.00  0.00    +0.000 A 
ATOM     14  C   UNL     1       2.450   3.077  -0.790  0.00  0.00    +0.000 A 
ATOM     15  C   UNL     1       1.286   2.691  -0.085  0.00  0.00    +0.000 A 
ATOM     16  H   UNL     1      -1.291   3.450   1.571  0.00  0.00    +0.000 HD
ENDBRANCH   1   7
BRANCH   3  17
ATOM     17  C   UNL     1      -2.740  -1.448   1.536  0.00  0.00    +0.000 C 
BRANCH  17  18
ATOM     18  C   UNL     1      -2.459  -2.907   1.113  0.00  0.00    +0.000 C 
BRANCH  18  19
ATOM     19  C   UNL     1      -3.576  -3.833   1.525  0.00  0.00    +0.000 A 
ATOM     20  C   UNL     1      -4.637  -4.096   0.647  0.00  0.00    +0.000 A 
ATOM     21  C   UNL     1      -5.790  -4.723   1.118  0.00  0.00    +0.000 A 
ATOM     22  C   UNL     1      -5.873  -5.086   2.457  0.00  0.00    +0.000 A 
ATOM     23  F   UNL     1      -7.018  -5.591   2.934  0.00  0.00    +0.000 F 
ATOM     24  C   UNL     1      -4.792  -4.917   3.314  0.00  0.00    +0.000 A 
ATOM     25  C   UNL     1      -3.627  -4.321   2.839  0.00  0.00    +0.000 A 
ENDBRANCH  18  19
ENDBRANCH  17  18
ENDBRANCH   3  17
TORSDOF 4
