MODEL 1
REMARK VINA RESULT:    -9.541      0.000      0.000
REMARK INTER + INTRA:         -17.947
REMARK INTER:                 -15.677
REMARK INTRA:                  -2.271
REMARK UNBOUND:                -2.271
REMARK  Name = 
REMARK  13 active torsions:
REMARK  status: ('A' for Active; 'I' for Inactive)
REMARK    1  A    between atoms: C_1  and  C_2
REMARK    2  A    between atoms: C_2  and  O_3
REMARK    3  A    between atoms: O_3  and  C_4
REMARK    4  A    between atoms: C_10  and  N_11
REMARK    5  A    between atoms: N_11  and  C_12
REMARK    6  A    between atoms: C_15  and  O_16
REMARK    7  A    between atoms: O_16  and  C_17
REMARK    8  A    between atoms: C_17  and  C_18
REMARK    9  A    between atoms: C_30  and  N_31
REMARK   10  A    between atoms: C_32  and  C_34
REMARK   11  A    between atoms: C_35  and  C_36
REMARK   12  A    between atoms: C_36  and  N_37
REMARK   13  A    between atoms: N_40  and  C_41
REMARK                            x       y       z     vdW  Elec       q    Type
REMARK                         _______ _______ _______ _____ _____    ______ ____
ROOT
ATOM      1  C   UNL     1      26.704   1.665  52.422  0.00  0.00    +0.000 A 
ATOM      2  C   UNL     1      26.196   0.718  53.324  0.00  0.00    +0.000 A 
ATOM      3  C   UNL     1      24.859   0.321  53.304  0.00  0.00    +0.000 A 
ATOM      4  N   UNL     1      24.430  -0.520  54.247  0.00  0.00    +0.000 NA
ATOM      5  C   UNL     1      23.125  -0.822  54.226  0.00  0.00    +0.000 A 
ATOM      6  N   UNL     1      22.222  -0.386  53.348  0.00  0.00    +0.000 NA
ATOM      7  C   UNL     1      22.660   0.434  52.378  0.00  0.00    +0.000 A 
ATOM      8  C   UNL     1      24.013   0.841  52.319  0.00  0.00    +0.000 A 
ATOM      9  C   UNL     1      24.545   1.745  51.370  0.00  0.00    +0.000 A 
ATOM     10  C   UNL     1      25.863   2.191  51.433  0.00  0.00    +0.000 A 
ENDROOT
BRANCH  10  11
ATOM     11  N   UNL     1      26.378   3.158  50.536  0.00  0.00    +0.000 N 
ATOM     12  C   UNL     1      25.679   4.208  49.977  0.00  0.00    +0.000 C 
ATOM     13  O   UNL     1      24.514   4.514  50.203  0.00  0.00    +0.000 OA
ATOM     14  H   UNL     1      27.327   3.073  50.287  0.00  0.00    +0.000 HD
BRANCH  12  15
ATOM     15  C   UNL     1      26.489   4.989  49.006  0.00  0.00    +0.000 C 
ATOM     16  C   UNL     1      27.825   4.833  48.971  0.00  0.00    +0.000 C 
BRANCH  16  17
ATOM     17  C   UNL     1      28.746   5.680  48.146  0.00  0.00    +0.000 C 
BRANCH  17  18
ATOM     18  N   UNL     1      29.408   6.738  48.907  0.00  0.00    +0.000 N 
ATOM     19  C   UNL     1      30.858   6.811  48.645  0.00  0.00    +0.000 C 
ATOM     20  C   UNL     1      31.518   7.970  49.426  0.00  0.00    +0.000 C 
ATOM     21  N   UNL     1      30.942   9.302  49.153  0.00  0.00    +0.000 N 
ATOM     22  C   UNL     1      31.306   9.786  47.825  0.00  0.00    +0.000 C 
ATOM     23  C   UNL     1      29.476   9.227  49.326  0.00  0.00    +0.000 C 
ATOM     24  C   UNL     1      28.790   8.046  48.596  0.00  0.00    +0.000 C 
ATOM     25  H   UNL     1      29.286   6.511  49.894  0.00  0.00    +0.000 HD
ATOM     26  H   UNL     1      31.323   9.977  49.816  0.00  0.00    +0.000 HD
ENDBRANCH  17  18
ENDBRANCH  16  17
ENDBRANCH  12  15
ENDBRANCH  10  11
BRANCH   7  27
ATOM     27  N   UNL     1      21.731   1.042  51.492  0.00  0.00    +0.000 N 
ATOM     28  H   UNL     1      21.137   0.408  51.030  0.00  0.00    +0.000 HD
BRANCH  27  29
ATOM     29  C   UNL     1      21.510   2.394  51.156  0.00  0.00    +0.000 A 
ATOM     30  C   UNL     1      21.367   3.415  52.091  0.00  0.00    +0.000 A 
ATOM     31  C   UNL     1      21.133   4.734  51.687  0.00  0.00    +0.000 A 
ATOM     32  C   UNL     1      21.062   5.061  50.328  0.00  0.00    +0.000 A 
ATOM     33  C   UNL     1      21.168   4.034  49.385  0.00  0.00    +0.000 A 
ATOM     34 CL   UNL     1      21.033   4.349  47.690  0.00  0.00    +0.000 Cl
ATOM     35  C   UNL     1      21.400   2.717  49.796  0.00  0.00    +0.000 A 
BRANCH  32  36
ATOM     36  O   UNL     1      20.879   6.341  49.864  0.00  0.00    +0.000 OA
BRANCH  36  37
ATOM     37  C   UNL     1      21.407   7.374  50.698  0.00  0.00    +0.000 C 
BRANCH  37  38
ATOM     38  C   UNL     1      22.689   7.948  50.140  0.00  0.00    +0.000 A 
ATOM     39  C   UNL     1      22.723   8.630  48.914  0.00  0.00    +0.000 A 
ATOM     40  C   UNL     1      23.940   9.035  48.356  0.00  0.00    +0.000 A 
ATOM     41  C   UNL     1      25.136   8.758  49.014  0.00  0.00    +0.000 A 
ATOM     42  C   UNL     1      25.106   8.089  50.230  0.00  0.00    +0.000 A 
ATOM     43  F   UNL     1      26.255   7.810  50.860  0.00  0.00    +0.000 F 
ATOM     44  C   UNL     1      23.902   7.682  50.795  0.00  0.00    +0.000 A 
ENDBRANCH  37  38
ENDBRANCH  36  37
ENDBRANCH  32  36
ENDBRANCH  27  29
ENDBRANCH   7  27
BRANCH   1  45
ATOM     45  O   UNL     1      27.989   2.158  52.446  0.00  0.00    +0.000 OA
BRANCH  45  47
ATOM     46  C   UNL     1      29.541   0.760  53.611  0.00  0.00    +0.000 C 
ATOM     47  C   UNL     1      28.707   2.027  53.676  0.00  0.00    +0.000 C 
ENDBRANCH  45  47
ENDBRANCH   1  45
TORSDOF 11
ENDMDL
MODEL 2
REMARK VINA RESULT:    -9.291      4.442      5.737
REMARK INTER + INTRA:         -17.536
REMARK INTER:                 -15.771
REMARK INTRA:                  -1.765
REMARK UNBOUND:                -2.271
REMARK  Name = 
REMARK  13 active torsions:
REMARK  status: ('A' for Active; 'I' for Inactive)
REMARK    1  A    between atoms: C_1  and  C_2
REMARK    2  A    between atoms: C_2  and  O_3
REMARK    3  A    between atoms: O_3  and  C_4
REMARK    4  A    between atoms: C_10  and  N_11
REMARK    5  A    between atoms: N_11  and  C_12
REMARK    6  A    between atoms: C_15  and  O_16
REMARK    7  A    between atoms: O_16  and  C_17
REMARK    8  A    between atoms: C_17  and  C_18
REMARK    9  A    between atoms: C_30  and  N_31
REMARK   10  A    between atoms: C_32  and  C_34
REMARK   11  A    between atoms: C_35  and  C_36
REMARK   12  A    between atoms: C_36  and  N_37
REMARK   13  A    between atoms: N_40  and  C_41
REMARK                            x       y       z     vdW  Elec       q    Type
REMARK                         _______ _______ _______ _____ _____    ______ ____
ROOT
ATOM      1  C   UNL     1      25.643   0.713  52.379  0.00  0.00    +0.000 A 
ATOM      2  C   UNL     1      25.104  -0.182  53.316  0.00  0.00    +0.000 A 
ATOM      3  C   UNL     1      23.743  -0.200  53.622  0.00  0.00    +0.000 A 
ATOM      4  N   UNL     1      23.318  -1.020  54.585  0.00  0.00    +0.000 NA
ATOM      5  C   UNL     1      22.016  -0.957  54.889  0.00  0.00    +0.000 A 
ATOM      6  N   UNL     1      21.102  -0.177  54.312  0.00  0.00    +0.000 NA
ATOM      7  C   UNL     1      21.523   0.625  53.319  0.00  0.00    +0.000 A 
ATOM      8  C   UNL     1      22.883   0.660  52.933  0.00  0.00    +0.000 A 
ATOM      9  C   UNL     1      23.419   1.514  51.941  0.00  0.00    +0.000 A 
ATOM     10  C   UNL     1      24.787   1.578  51.685  0.00  0.00    +0.000 A 
ENDROOT
BRANCH  10  11
ATOM     11  N   UNL     1      25.340   2.490  50.752  0.00  0.00    +0.000 N 
ATOM     12  C   UNL     1      25.208   3.863  50.775  0.00  0.00    +0.000 C 
ATOM     13  O   UNL     1      24.641   4.529  51.634  0.00  0.00    +0.000 OA
ATOM     14  H   UNL     1      25.868   2.106  50.015  0.00  0.00    +0.000 HD
BRANCH  12  15
ATOM     15  C   UNL     1      25.836   4.523  49.600  0.00  0.00    +0.000 C 
ATOM     16  C   UNL     1      27.163   4.422  49.407  0.00  0.00    +0.000 C 
BRANCH  16  17
ATOM     17  C   UNL     1      27.915   5.174  48.351  0.00  0.00    +0.000 C 
BRANCH  17  18
ATOM     18  N   UNL     1      28.750   6.252  48.880  0.00  0.00    +0.000 N 
ATOM     19  C   UNL     1      30.125   6.225  48.348  0.00  0.00    +0.000 C 
ATOM     20  C   UNL     1      30.966   7.405  48.889  0.00  0.00    +0.000 C 
ATOM     21  N   UNL     1      30.399   8.741  48.612  0.00  0.00    +0.000 N 
ATOM     22  C   UNL     1      30.524   9.098  47.202  0.00  0.00    +0.000 C 
ATOM     23  C   UNL     1      28.991   8.759  49.059  0.00  0.00    +0.000 C 
ATOM     24  C   UNL     1      28.134   7.563  48.576  0.00  0.00    +0.000 C 
ATOM     25  H   UNL     1      28.808   6.111  49.889  0.00  0.00    +0.000 HD
ATOM     26  H   UNL     1      30.925   9.444  49.130  0.00  0.00    +0.000 HD
ENDBRANCH  17  18
ENDBRANCH  16  17
ENDBRANCH  12  15
ENDBRANCH  10  11
BRANCH   7  27
ATOM     27  N   UNL     1      20.633   1.578  52.754  0.00  0.00    +0.000 N 
ATOM     28  H   UNL     1      20.966   2.504  52.773  0.00  0.00    +0.000 HD
BRANCH  27  29
ATOM     29  C   UNL     1      19.358   1.432  52.172  0.00  0.00    +0.000 A 
ATOM     30  C   UNL     1      18.732   0.206  51.966  0.00  0.00    +0.000 A 
ATOM     31  C   UNL     1      17.469   0.134  51.366  0.00  0.00    +0.000 A 
ATOM     32  C   UNL     1      16.795   1.298  50.982  0.00  0.00    +0.000 A 
ATOM     33  C   UNL     1      17.434   2.530  51.152  0.00  0.00    +0.000 A 
ATOM     34 CL   UNL     1      16.691   4.009  50.649  0.00  0.00    +0.000 Cl
ATOM     35  C   UNL     1      18.697   2.595  51.750  0.00  0.00    +0.000 A 
BRANCH  32  36
ATOM     36  O   UNL     1      15.537   1.299  50.429  0.00  0.00    +0.000 OA
BRANCH  36  37
ATOM     37  C   UNL     1      14.469   1.047  51.343  0.00  0.00    +0.000 C 
BRANCH  37  38
ATOM     38  C   UNL     1      13.733   2.315  51.713  0.00  0.00    +0.000 A 
ATOM     39  C   UNL     1      13.136   3.134  50.741  0.00  0.00    +0.000 A 
ATOM     40  C   UNL     1      12.577   4.367  51.094  0.00  0.00    +0.000 A 
ATOM     41  C   UNL     1      12.613   4.797  52.418  0.00  0.00    +0.000 A 
ATOM     42  C   UNL     1      13.196   3.985  53.382  0.00  0.00    +0.000 A 
ATOM     43  F   UNL     1      13.242   4.400  54.655  0.00  0.00    +0.000 F 
ATOM     44  C   UNL     1      13.754   2.757  53.045  0.00  0.00    +0.000 A 
ENDBRANCH  37  38
ENDBRANCH  36  37
ENDBRANCH  32  36
ENDBRANCH  27  29
ENDBRANCH   7  27
BRANCH   1  45
ATOM     45  O   UNL     1      26.984   0.836  52.096  0.00  0.00    +0.000 OA
BRANCH  45  47
ATOM     46  C   UNL     1      28.290   2.274  53.492  0.00  0.00    +0.000 C 
ATOM     47  C   UNL     1      27.881   0.839  53.210  0.00  0.00    +0.000 C 
ENDBRANCH  45  47
ENDBRANCH   1  45
TORSDOF 11
ENDMDL
MODEL 3
REMARK VINA RESULT:    -9.093      1.925      2.499
REMARK INTER + INTRA:         -17.211
REMARK INTER:                 -15.444
REMARK INTRA:                  -1.767
REMARK UNBOUND:                -2.271
REMARK  Name = 
REMARK  13 active torsions:
REMARK  status: ('A' for Active; 'I' for Inactive)
REMARK    1  A    between atoms: C_1  and  C_2
REMARK    2  A    between atoms: C_2  and  O_3
REMARK    3  A    between atoms: O_3  and  C_4
REMARK    4  A    between atoms: C_10  and  N_11
REMARK    5  A    between atoms: N_11  and  C_12
REMARK    6  A    between atoms: C_15  and  O_16
REMARK    7  A    between atoms: O_16  and  C_17
REMARK    8  A    between atoms: C_17  and  C_18
REMARK    9  A    between atoms: C_30  and  N_31
REMARK   10  A    between atoms: C_32  and  C_34
REMARK   11  A    between atoms: C_35  and  C_36
REMARK   12  A    between atoms: C_36  and  N_37
REMARK   13  A    between atoms: N_40  and  C_41
REMARK                            x       y       z     vdW  Elec       q    Type
REMARK                         _______ _______ _______ _____ _____    ______ ____
ROOT
ATOM      1  C   UNL     1      26.235   0.535  52.642  0.00  0.00    +0.000 A 
ATOM      2  C   UNL     1      25.612  -0.377  53.507  0.00  0.00    +0.000 A 
ATOM      3  C   UNL     1      24.233  -0.370  53.720  0.00  0.00    +0.000 A 
ATOM      4  N   UNL     1      23.724  -1.212  54.621  0.00  0.00    +0.000 NA
ATOM      5  C   UNL     1      22.406  -1.124  54.839  0.00  0.00    +0.000 A 
ATOM      6  N   UNL     1      21.553  -0.300  54.231  0.00  0.00    +0.000 NA
ATOM      7  C   UNL     1      22.060   0.525  53.299  0.00  0.00    +0.000 A 
ATOM      8  C   UNL     1      23.443   0.537  53.007  0.00  0.00    +0.000 A 
ATOM      9  C   UNL     1      24.067   1.411  52.086  0.00  0.00    +0.000 A 
ATOM     10  C   UNL     1      25.450   1.447  51.925  0.00  0.00    +0.000 A 
ENDROOT
BRANCH  10  11
ATOM     11  N   UNL     1      26.087   2.376  51.065  0.00  0.00    +0.000 N 
ATOM     12  C   UNL     1      25.461   3.278  50.230  0.00  0.00    +0.000 C 
ATOM     13  O   UNL     1      24.254   3.468  50.131  0.00  0.00    +0.000 OA
ATOM     14  H   UNL     1      27.072   2.377  51.064  0.00  0.00    +0.000 HD
BRANCH  12  15
ATOM     15  C   UNL     1      26.418   4.050  49.393  0.00  0.00    +0.000 C 
ATOM     16  C   UNL     1      26.279   5.382  49.275  0.00  0.00    +0.000 C 
BRANCH  16  17
ATOM     17  C   UNL     1      27.086   6.228  48.337  0.00  0.00    +0.000 C 
BRANCH  17  18
ATOM     18  N   UNL     1      28.412   6.570  48.850  0.00  0.00    +0.000 N 
ATOM     19  C   UNL     1      29.484   5.745  48.261  0.00  0.00    +0.000 C 
ATOM     20  C   UNL     1      30.876   6.165  48.787  0.00  0.00    +0.000 C 
ATOM     21  N   UNL     1      31.218   7.583  48.556  0.00  0.00    +0.000 N 
ATOM     22  C   UNL     1      31.500   7.849  47.148  0.00  0.00    +0.000 C 
ATOM     23  C   UNL     1      30.113   8.424  49.062  0.00  0.00    +0.000 C 
ATOM     24  C   UNL     1      28.699   7.999  48.593  0.00  0.00    +0.000 C 
ATOM     25  H   UNL     1      28.397   6.384  49.853  0.00  0.00    +0.000 HD
ATOM     26  H   UNL     1      32.072   7.812  49.064  0.00  0.00    +0.000 HD
ENDBRANCH  17  18
ENDBRANCH  16  17
ENDBRANCH  12  15
ENDBRANCH  10  11
BRANCH   7  27
ATOM     27  N   UNL     1      21.234   1.521  52.711  0.00  0.00    +0.000 N 
ATOM     28  H   UNL     1      20.680   2.019  53.353  0.00  0.00    +0.000 HD
BRANCH  27  29
ATOM     29  C   UNL     1      21.068   1.919  51.369  0.00  0.00    +0.000 A 
ATOM     30  C   UNL     1      21.257   1.077  50.277  0.00  0.00    +0.000 A 
ATOM     31  C   UNL     1      21.091   1.546  48.969  0.00  0.00    +0.000 A 
ATOM     32  C   UNL     1      20.704   2.869  48.729  0.00  0.00    +0.000 A 
ATOM     33  C   UNL     1      20.549   3.730  49.820  0.00  0.00    +0.000 A 
ATOM     34 CL   UNL     1      20.130   5.394  49.603  0.00  0.00    +0.000 Cl
ATOM     35  C   UNL     1      20.719   3.256  51.125  0.00  0.00    +0.000 A 
BRANCH  32  36
ATOM     36  O   UNL     1      20.481   3.379  47.473  0.00  0.00    +0.000 OA
BRANCH  36  37
ATOM     37  C   UNL     1      21.625   3.418  46.618  0.00  0.00    +0.000 C 
BRANCH  37  38
ATOM     38  C   UNL     1      22.086   4.835  46.360  0.00  0.00    +0.000 A 
ATOM     39  C   UNL     1      22.025   5.411  45.082  0.00  0.00    +0.000 A 
ATOM     40  C   UNL     1      22.578   6.674  44.841  0.00  0.00    +0.000 A 
ATOM     41  C   UNL     1      23.203   7.370  45.873  0.00  0.00    +0.000 A 
ATOM     42  C   UNL     1      23.259   6.805  47.140  0.00  0.00    +0.000 A 
ATOM     43  F   UNL     1      23.869   7.467  48.133  0.00  0.00    +0.000 F 
ATOM     44  C   UNL     1      22.712   5.552  47.392  0.00  0.00    +0.000 A 
ENDBRANCH  37  38
ENDBRANCH  36  37
ENDBRANCH  32  36
ENDBRANCH  27  29
ENDBRANCH   7  27
BRANCH   1  45
ATOM     45  O   UNL     1      27.595   0.633  52.455  0.00  0.00    +0.000 OA
BRANCH  45  47
ATOM     46  C   UNL     1      28.647   2.449  53.602  0.00  0.00    +0.000 C 
ATOM     47  C   UNL     1      28.383   0.953  53.604  0.00  0.00    +0.000 C 
ENDBRANCH  45  47
ENDBRANCH   1  45
TORSDOF 11
ENDMDL
MODEL 4
REMARK VINA RESULT:    -9.004      4.578      5.938
REMARK INTER + INTRA:         -17.064
REMARK INTER:                 -16.394
REMARK INTRA:                  -0.670
REMARK UNBOUND:                -2.271
REMARK  Name = 
REMARK  13 active torsions:
REMARK  status: ('A' for Active; 'I' for Inactive)
REMARK    1  A    between atoms: C_1  and  C_2
REMARK    2  A    between atoms: C_2  and  O_3
REMARK    3  A    between atoms: O_3  and  C_4
REMARK    4  A    between atoms: C_10  and  N_11
REMARK    5  A    between atoms: N_11  and  C_12
REMARK    6  A    between atoms: C_15  and  O_16
REMARK    7  A    between atoms: O_16  and  C_17
REMARK    8  A    between atoms: C_17  and  C_18
REMARK    9  A    between atoms: C_30  and  N_31
REMARK   10  A    between atoms: C_32  and  C_34
REMARK   11  A    between atoms: C_35  and  C_36
REMARK   12  A    between atoms: C_36  and  N_37
REMARK   13  A    between atoms: N_40  and  C_41
REMARK                            x       y       z     vdW  Elec       q    Type
REMARK                         _______ _______ _______ _____ _____    ______ ____
ROOT
ATOM      1  C   UNL     1      26.588   1.589  52.400  0.00  0.00    +0.000 A 
ATOM      2  C   UNL     1      25.960   0.595  53.167  0.00  0.00    +0.000 A 
ATOM      3  C   UNL     1      24.577   0.415  53.154  0.00  0.00    +0.000 A 
ATOM      4  N   UNL     1      24.047  -0.493  53.975  0.00  0.00    +0.000 NA
ATOM      5  C   UNL     1      22.711  -0.586  53.976  0.00  0.00    +0.000 A 
ATOM      6  N   UNL     1      21.865   0.119  53.225  0.00  0.00    +0.000 NA
ATOM      7  C   UNL     1      22.400   1.010  52.374  0.00  0.00    +0.000 A 
ATOM      8  C   UNL     1      23.799   1.211  52.309  0.00  0.00    +0.000 A 
ATOM      9  C   UNL     1      24.440   2.166  51.487  0.00  0.00    +0.000 A 
ATOM     10  C   UNL     1      25.814   2.390  51.550  0.00  0.00    +0.000 A 
ENDROOT
BRANCH  10  11
ATOM     11  N   UNL     1      26.451   3.401  50.790  0.00  0.00    +0.000 N 
ATOM     12  C   UNL     1      25.976   3.970  49.627  0.00  0.00    +0.000 C 
ATOM     13  O   UNL     1      24.901   3.739  49.085  0.00  0.00    +0.000 OA
ATOM     14  H   UNL     1      27.317   3.730  51.124  0.00  0.00    +0.000 HD
BRANCH  12  15
ATOM     15  C   UNL     1      26.929   4.942  49.028  0.00  0.00    +0.000 C 
ATOM     16  C   UNL     1      26.623   6.252  49.006  0.00  0.00    +0.000 C 
BRANCH  16  17
ATOM     17  C   UNL     1      27.434   7.289  48.291  0.00  0.00    +0.000 C 
BRANCH  17  18
ATOM     18  N   UNL     1      28.701   7.600  48.950  0.00  0.00    +0.000 N 
ATOM     19  C   UNL     1      29.854   6.930  48.319  0.00  0.00    +0.000 C 
ATOM     20  C   UNL     1      31.183   7.319  49.009  0.00  0.00    +0.000 C 
ATOM     21  N   UNL     1      31.460   8.769  49.035  0.00  0.00    +0.000 N 
ATOM     22  C   UNL     1      31.821   9.273  47.713  0.00  0.00    +0.000 C 
ATOM     23  C   UNL     1      30.279   9.467  49.584  0.00  0.00    +0.000 C 
ATOM     24  C   UNL     1      28.926   9.063  48.948  0.00  0.00    +0.000 C 
ATOM     25  H   UNL     1      28.629   7.251  49.906  0.00  0.00    +0.000 HD
ATOM     26  H   UNL     1      32.265   8.948  49.636  0.00  0.00    +0.000 HD
ENDBRANCH  17  18
ENDBRANCH  16  17
ENDBRANCH  12  15
ENDBRANCH  10  11
BRANCH   7  27
ATOM     27  N   UNL     1      21.555   1.888  51.644  0.00  0.00    +0.000 N 
ATOM     28  H   UNL     1      22.033   2.499  51.037  0.00  0.00    +0.000 HD
BRANCH  27  29
ATOM     29  C   UNL     1      20.154   2.041  51.636  0.00  0.00    +0.000 A 
ATOM     30  C   UNL     1      19.504   3.268  51.733  0.00  0.00    +0.000 A 
ATOM     31  C   UNL     1      18.107   3.345  51.736  0.00  0.00    +0.000 A 
ATOM     32  C   UNL     1      17.329   2.188  51.616  0.00  0.00    +0.000 A 
ATOM     33  C   UNL     1      17.975   0.949  51.556  0.00  0.00    +0.000 A 
ATOM     34 CL   UNL     1      17.083  -0.530  51.466  0.00  0.00    +0.000 Cl
ATOM     35  C   UNL     1      19.372   0.879  51.556  0.00  0.00    +0.000 A 
BRANCH  32  36
ATOM     36  O   UNL     1      15.956   2.197  51.568  0.00  0.00    +0.000 OA
BRANCH  36  37
ATOM     37  C   UNL     1      15.343   3.447  51.892  0.00  0.00    +0.000 C 
BRANCH  37  38
ATOM     38  C   UNL     1      14.119   3.263  52.760  0.00  0.00    +0.000 A 
ATOM     39  C   UNL     1      13.495   4.347  53.398  0.00  0.00    +0.000 A 
ATOM     40  C   UNL     1      12.446   4.136  54.300  0.00  0.00    +0.000 A 
ATOM     41  C   UNL     1      12.014   2.841  54.578  0.00  0.00    +0.000 A 
ATOM     42  C   UNL     1      12.624   1.768  53.943  0.00  0.00    +0.000 A 
ATOM     43  F   UNL     1      12.219   0.521  54.216  0.00  0.00    +0.000 F 
ATOM     44  C   UNL     1      13.667   1.965  53.044  0.00  0.00    +0.000 A 
ENDBRANCH  37  38
ENDBRANCH  36  37
ENDBRANCH  32  36
ENDBRANCH  27  29
ENDBRANCH   7  27
BRANCH   1  45
ATOM     45  O   UNL     1      27.934   1.870  52.433  0.00  0.00    +0.000 OA
BRANCH  45  47
ATOM     46  C   UNL     1      29.359   1.010  54.151  0.00  0.00    +0.000 C 
ATOM     47  C   UNL     1      28.497   2.180  53.711  0.00  0.00    +0.000 C 
ENDBRANCH  45  47
ENDBRANCH   1  45
TORSDOF 11
ENDMDL
MODEL 5
REMARK VINA RESULT:    -8.928      3.247      6.068
REMARK INTER + INTRA:         -16.940
REMARK INTER:                 -14.621
REMARK INTRA:                  -2.319
REMARK UNBOUND:                -2.271
REMARK  Name = 
REMARK  13 active torsions:
REMARK  status: ('A' for Active; 'I' for Inactive)
REMARK    1  A    between atoms: C_1  and  C_2
REMARK    2  A    between atoms: C_2  and  O_3
REMARK    3  A    between atoms: O_3  and  C_4
REMARK    4  A    between atoms: C_10  and  N_11
REMARK    5  A    between atoms: N_11  and  C_12
REMARK    6  A    between atoms: C_15  and  O_16
REMARK    7  A    between atoms: O_16  and  C_17
REMARK    8  A    between atoms: C_17  and  C_18
REMARK    9  A    between atoms: C_30  and  N_31
REMARK   10  A    between atoms: C_32  and  C_34
REMARK   11  A    between atoms: C_35  and  C_36
REMARK   12  A    between atoms: C_36  and  N_37
REMARK   13  A    between atoms: N_40  and  C_41
REMARK                            x       y       z     vdW  Elec       q    Type
REMARK                         _______ _______ _______ _____ _____    ______ ____
ROOT
ATOM      1  C   UNL     1      20.274  -0.242  53.501  0.00  0.00    +0.000 A 
ATOM      2  C   UNL     1      18.978  -0.761  53.360  0.00  0.00    +0.000 A 
ATOM      3  C   UNL     1      18.202  -0.511  52.228  0.00  0.00    +0.000 A 
ATOM      4  N   UNL     1      16.948  -0.968  52.203  0.00  0.00    +0.000 NA
ATOM      5  C   UNL     1      16.220  -0.648  51.125  0.00  0.00    +0.000 A 
ATOM      6  N   UNL     1      16.629   0.056  50.070  0.00  0.00    +0.000 NA
ATOM      7  C   UNL     1      17.901   0.487  50.080  0.00  0.00    +0.000 A 
ATOM      8  C   UNL     1      18.752   0.231  51.180  0.00  0.00    +0.000 A 
ATOM      9  C   UNL     1      20.083   0.697  51.297  0.00  0.00    +0.000 A 
ATOM     10  C   UNL     1      20.833   0.503  52.455  0.00  0.00    +0.000 A 
ENDROOT
BRANCH  10  11
ATOM     11  N   UNL     1      22.136   1.037  52.611  0.00  0.00    +0.000 N 
ATOM     12  C   UNL     1      22.490   2.367  52.512  0.00  0.00    +0.000 C 
ATOM     13  O   UNL     1      21.735   3.314  52.328  0.00  0.00    +0.000 OA
ATOM     14  H   UNL     1      22.857   0.398  52.809  0.00  0.00    +0.000 HD
BRANCH  12  15
ATOM     15  C   UNL     1      23.956   2.584  52.641  0.00  0.00    +0.000 C 
ATOM     16  C   UNL     1      24.808   1.845  51.909  0.00  0.00    +0.000 C 
BRANCH  16  17
ATOM     17  C   UNL     1      26.297   1.872  52.077  0.00  0.00    +0.000 C 
BRANCH  17  18
ATOM     18  N   UNL     1      26.795   0.903  53.051  0.00  0.00    +0.000 N 
ATOM     19  C   UNL     1      27.161  -0.389  52.439  0.00  0.00    +0.000 C 
ATOM     20  C   UNL     1      27.730  -1.373  53.488  0.00  0.00    +0.000 C 
ATOM     21  N   UNL     1      28.907  -0.872  54.225  0.00  0.00    +0.000 N 
ATOM     22  C   UNL     1      30.099  -0.842  53.382  0.00  0.00    +0.000 C 
ATOM     23  C   UNL     1      28.590   0.463  54.773  0.00  0.00    +0.000 C 
ATOM     24  C   UNL     1      27.971   1.457  53.759  0.00  0.00    +0.000 C 
ATOM     25  H   UNL     1      26.034   0.727  53.708  0.00  0.00    +0.000 HD
ATOM     26  H   UNL     1      29.120  -1.508  54.993  0.00  0.00    +0.000 HD
ENDBRANCH  17  18
ENDBRANCH  16  17
ENDBRANCH  12  15
ENDBRANCH  10  11
BRANCH   7  27
ATOM     27  N   UNL     1      18.362   1.356  49.054  0.00  0.00    +0.000 N 
ATOM     28  H   UNL     1      18.111   1.078  48.144  0.00  0.00    +0.000 HD
BRANCH  27  29
ATOM     29  C   UNL     1      19.118   2.545  49.110  0.00  0.00    +0.000 A 
ATOM     30  C   UNL     1      18.837   3.607  49.966  0.00  0.00    +0.000 A 
ATOM     31  C   UNL     1      19.621   4.766  49.956  0.00  0.00    +0.000 A 
ATOM     32  C   UNL     1      20.723   4.874  49.100  0.00  0.00    +0.000 A 
ATOM     33  C   UNL     1      20.988   3.827  48.212  0.00  0.00    +0.000 A 
ATOM     34 CL   UNL     1      22.296   3.911  47.084  0.00  0.00    +0.000 Cl
ATOM     35  C   UNL     1      20.199   2.672  48.225  0.00  0.00    +0.000 A 
BRANCH  32  36
ATOM     36  O   UNL     1      21.557   5.965  49.072  0.00  0.00    +0.000 OA
BRANCH  36  37
ATOM     37  C   UNL     1      22.403   6.116  50.214  0.00  0.00    +0.000 C 
BRANCH  37  38
ATOM     38  C   UNL     1      23.864   5.959  49.856  0.00  0.00    +0.000 A 
ATOM     39  C   UNL     1      24.667   7.060  49.520  0.00  0.00    +0.000 A 
ATOM     40  C   UNL     1      25.977   6.876  49.066  0.00  0.00    +0.000 A 
ATOM     41  C   UNL     1      26.497   5.590  48.937  0.00  0.00    +0.000 A 
ATOM     42  C   UNL     1      25.707   4.499  49.275  0.00  0.00    +0.000 A 
ATOM     43  F   UNL     1      26.199   3.260  49.141  0.00  0.00    +0.000 F 
ATOM     44  C   UNL     1      24.403   4.669  49.728  0.00  0.00    +0.000 A 
ENDBRANCH  37  38
ENDBRANCH  36  37
ENDBRANCH  32  36
ENDBRANCH  27  29
ENDBRANCH   7  27
BRANCH   1  45
ATOM     45  O   UNL     1      21.055  -0.383  54.626  0.00  0.00    +0.000 OA
BRANCH  45  47
ATOM     46  C   UNL     1      23.186  -1.349  55.120  0.00  0.00    +0.000 C 
ATOM     47  C   UNL     1      21.731  -1.632  54.789  0.00  0.00    +0.000 C 
ENDBRANCH  45  47
ENDBRANCH   1  45
TORSDOF 11
ENDMDL
MODEL 6
REMARK VINA RESULT:    -8.667      2.688      6.888
REMARK INTER + INTRA:         -16.510
REMARK INTER:                 -15.067
REMARK INTRA:                  -1.443
REMARK UNBOUND:                -2.271
REMARK  Name = 
REMARK  13 active torsions:
REMARK  status: ('A' for Active; 'I' for Inactive)
REMARK    1  A    between atoms: C_1  and  C_2
REMARK    2  A    between atoms: C_2  and  O_3
REMARK    3  A    between atoms: O_3  and  C_4
REMARK    4  A    between atoms: C_10  and  N_11
REMARK    5  A    between atoms: N_11  and  C_12
REMARK    6  A    between atoms: C_15  and  O_16
REMARK    7  A    between atoms: O_16  and  C_17
REMARK    8  A    between atoms: C_17  and  C_18
REMARK    9  A    between atoms: C_30  and  N_31
REMARK   10  A    between atoms: C_32  and  C_34
REMARK   11  A    between atoms: C_35  and  C_36
REMARK   12  A    between atoms: C_36  and  N_37
REMARK   13  A    between atoms: N_40  and  C_41
REMARK                            x       y       z     vdW  Elec       q    Type
REMARK                         _______ _______ _______ _____ _____    ______ ____
ROOT
ATOM      1  C   UNL     1      20.469   6.439  49.196  0.00  0.00    +0.000 A 
ATOM      2  C   UNL     1      19.221   6.011  49.674  0.00  0.00    +0.000 A 
ATOM      3  C   UNL     1      19.000   4.698  50.090  0.00  0.00    +0.000 A 
ATOM      4  N   UNL     1      17.765   4.345  50.451  0.00  0.00    +0.000 NA
ATOM      5  C   UNL     1      17.587   3.059  50.781  0.00  0.00    +0.000 A 
ATOM      6  N   UNL     1      18.521   2.108  50.807  0.00  0.00    +0.000 NA
ATOM      7  C   UNL     1      19.771   2.471  50.476  0.00  0.00    +0.000 A 
ATOM      8  C   UNL     1      20.069   3.797  50.085  0.00  0.00    +0.000 A 
ATOM      9  C   UNL     1      21.342   4.250  49.666  0.00  0.00    +0.000 A 
ATOM     10  C   UNL     1      21.545   5.542  49.187  0.00  0.00    +0.000 A 
ENDROOT
BRANCH  10  11
ATOM     11  N   UNL     1      22.798   5.976  48.689  0.00  0.00    +0.000 N 
ATOM     12  C   UNL     1      24.030   5.745  49.265  0.00  0.00    +0.000 C 
ATOM     13  O   UNL     1      24.255   5.081  50.271  0.00  0.00    +0.000 OA
ATOM     14  H   UNL     1      22.789   6.493  47.851  0.00  0.00    +0.000 HD
BRANCH  12  15
ATOM     15  C   UNL     1      25.142   6.413  48.537  0.00  0.00    +0.000 C 
ATOM     16  C   UNL     1      26.202   6.882  49.220  0.00  0.00    +0.000 C 
BRANCH  16  17
ATOM     17  C   UNL     1      27.294   7.705  48.608  0.00  0.00    +0.000 C 
BRANCH  17  18
ATOM     18  N   UNL     1      28.638   7.252  48.962  0.00  0.00    +0.000 N 
ATOM     19  C   UNL     1      29.107   6.135  48.121  0.00  0.00    +0.000 C 
ATOM     20  C   UNL     1      30.549   5.714  48.489  0.00  0.00    +0.000 C 
ATOM     21  N   UNL     1      31.547   6.798  48.397  0.00  0.00    +0.000 N 
ATOM     22  C   UNL     1      31.839   7.147  47.010  0.00  0.00    +0.000 C 
ATOM     23  C   UNL     1      31.054   7.961  49.163  0.00  0.00    +0.000 C 
ATOM     24  C   UNL     1      29.594   8.378  48.855  0.00  0.00    +0.000 C 
ATOM     25  H   UNL     1      28.592   6.915  49.924  0.00  0.00    +0.000 HD
ATOM     26  H   UNL     1      32.428   6.480  48.801  0.00  0.00    +0.000 HD
ENDBRANCH  17  18
ENDBRANCH  16  17
ENDBRANCH  12  15
ENDBRANCH  10  11
BRANCH   7  27
ATOM     27  N   UNL     1      20.786   1.484  50.351  0.00  0.00    +0.000 N 
ATOM     28  H   UNL     1      20.715   0.931  49.541  0.00  0.00    +0.000 HD
BRANCH  27  29
ATOM     29  C   UNL     1      21.875   1.157  51.184  0.00  0.00    +0.000 A 
ATOM     30  C   UNL     1      23.159   1.672  51.025  0.00  0.00    +0.000 A 
ATOM     31  C   UNL     1      24.199   1.290  51.880  0.00  0.00    +0.000 A 
ATOM     32  C   UNL     1      23.965   0.398  52.933  0.00  0.00    +0.000 A 
ATOM     33  C   UNL     1      22.687  -0.152  53.075  0.00  0.00    +0.000 A 
ATOM     34 CL   UNL     1      22.333  -1.305  54.315  0.00  0.00    +0.000 Cl
ATOM     35  C   UNL     1      21.652   0.233  52.216  0.00  0.00    +0.000 A 
BRANCH  32  36
ATOM     36  O   UNL     1      24.930   0.016  53.833  0.00  0.00    +0.000 OA
BRANCH  36  37
ATOM     37  C   UNL     1      25.863  -0.953  53.353  0.00  0.00    +0.000 C 
BRANCH  37  38
ATOM     38  C   UNL     1      27.278  -0.421  53.355  0.00  0.00    +0.000 A 
ATOM     39  C   UNL     1      28.391  -1.276  53.329  0.00  0.00    +0.000 A 
ATOM     40  C   UNL     1      29.687  -0.766  53.466  0.00  0.00    +0.000 A 
ATOM     41  C   UNL     1      29.884   0.603  53.635  0.00  0.00    +0.000 A 
ATOM     42  C   UNL     1      28.785   1.452  53.654  0.00  0.00    +0.000 A 
ATOM     43  F   UNL     1      28.970   2.767  53.828  0.00  0.00    +0.000 F 
ATOM     44  C   UNL     1      27.493   0.957  53.519  0.00  0.00    +0.000 A 
ENDBRANCH  37  38
ENDBRANCH  36  37
ENDBRANCH  32  36
ENDBRANCH  27  29
ENDBRANCH   7  27
BRANCH   1  45
ATOM     45  O   UNL     1      20.726   7.694  48.694  0.00  0.00    +0.000 OA
BRANCH  45  47
ATOM     46  C   UNL     1      20.979  10.040  49.089  0.00  0.00    +0.000 C 
ATOM     47  C   UNL     1      20.159   8.801  49.400  0.00  0.00    +0.000 C 
ENDBRANCH  45  47
ENDBRANCH   1  45
TORSDOF 11
ENDMDL
MODEL 7
REMARK VINA RESULT:    -8.444      5.065      6.642
REMARK INTER + INTRA:         -16.145
REMARK INTER:                 -14.556
REMARK INTRA:                  -1.589
REMARK UNBOUND:                -2.271
REMARK  Name = 
REMARK  13 active torsions:
REMARK  status: ('A' for Active; 'I' for Inactive)
REMARK    1  A    between atoms: C_1  and  C_2
REMARK    2  A    between atoms: C_2  and  O_3
REMARK    3  A    between atoms: O_3  and  C_4
REMARK    4  A    between atoms: C_10  and  N_11
REMARK    5  A    between atoms: N_11  and  C_12
REMARK    6  A    between atoms: C_15  and  O_16
REMARK    7  A    between atoms: O_16  and  C_17
REMARK    8  A    between atoms: C_17  and  C_18
REMARK    9  A    between atoms: C_30  and  N_31
REMARK   10  A    between atoms: C_32  and  C_34
REMARK   11  A    between atoms: C_35  and  C_36
REMARK   12  A    between atoms: C_36  and  N_37
REMARK   13  A    between atoms: N_40  and  C_41
REMARK                            x       y       z     vdW  Elec       q    Type
REMARK                         _______ _______ _______ _____ _____    ______ ____
ROOT
ATOM      1  C   UNL     1      25.365   0.975  52.519  0.00  0.00    +0.000 A 
ATOM      2  C   UNL     1      24.666   0.142  53.407  0.00  0.00    +0.000 A 
ATOM      3  C   UNL     1      23.281  -0.008  53.345  0.00  0.00    +0.000 A 
ATOM      4  N   UNL     1      22.678  -0.749  54.276  0.00  0.00    +0.000 NA
ATOM      5  C   UNL     1      21.342  -0.811  54.214  0.00  0.00    +0.000 A 
ATOM      6  N   UNL     1      20.560  -0.228  53.306  0.00  0.00    +0.000 NA
ATOM      7  C   UNL     1      21.169   0.491  52.348  0.00  0.00    +0.000 A 
ATOM      8  C   UNL     1      22.574   0.647  52.332  0.00  0.00    +0.000 A 
ATOM      9  C   UNL     1      23.289   1.432  51.397  0.00  0.00    +0.000 A 
ATOM     10  C   UNL     1      24.664   1.634  51.502  0.00  0.00    +0.000 A 
ENDROOT
BRANCH  10  11
ATOM     11  N   UNL     1      25.372   2.485  50.618  0.00  0.00    +0.000 N 
ATOM     12  C   UNL     1      25.341   3.864  50.612  0.00  0.00    +0.000 C 
ATOM     13  O   UNL     1      24.742   4.586  51.401  0.00  0.00    +0.000 OA
ATOM     14  H   UNL     1      25.942   2.050  49.944  0.00  0.00    +0.000 HD
BRANCH  12  15
ATOM     15  C   UNL     1      26.130   4.454  49.498  0.00  0.00    +0.000 C 
ATOM     16  C   UNL     1      26.338   5.782  49.456  0.00  0.00    +0.000 C 
BRANCH  16  17
ATOM     17  C   UNL     1      26.979   6.493  48.304  0.00  0.00    +0.000 C 
BRANCH  17  18
ATOM     18  N   UNL     1      26.563   7.889  48.171  0.00  0.00    +0.000 N 
ATOM     19  C   UNL     1      26.855   8.449  46.838  0.00  0.00    +0.000 C 
ATOM     20  C   UNL     1      26.359   9.909  46.716  0.00  0.00    +0.000 C 
ATOM     21  N   UNL     1      24.917  10.091  46.977  0.00  0.00    +0.000 N 
ATOM     22  C   UNL     1      24.100   9.560  45.889  0.00  0.00    +0.000 C 
ATOM     23  C   UNL     1      24.587   9.458  48.270  0.00  0.00    +0.000 C 
ATOM     24  C   UNL     1      25.113   8.012  48.445  0.00  0.00    +0.000 C 
ATOM     25  H   UNL     1      27.101   8.423  48.854  0.00  0.00    +0.000 HD
ATOM     26  H   UNL     1      24.707  11.088  47.028  0.00  0.00    +0.000 HD
ENDBRANCH  17  18
ENDBRANCH  16  17
ENDBRANCH  12  15
ENDBRANCH  10  11
BRANCH   7  27
ATOM     27  N   UNL     1      20.392   1.249  51.431  0.00  0.00    +0.000 N 
ATOM     28  H   UNL     1      20.922   1.776  50.790  0.00  0.00    +0.000 HD
BRANCH  27  29
ATOM     29  C   UNL     1      18.997   1.380  51.276  0.00  0.00    +0.000 A 
ATOM     30  C   UNL     1      18.167   0.367  50.804  0.00  0.00    +0.000 A 
ATOM     31  C   UNL     1      16.791   0.573  50.659  0.00  0.00    +0.000 A 
ATOM     32  C   UNL     1      16.212   1.797  51.012  0.00  0.00    +0.000 A 
ATOM     33  C   UNL     1      17.044   2.830  51.452  0.00  0.00    +0.000 A 
ATOM     34 CL   UNL     1      16.413   4.390  51.852  0.00  0.00    +0.000 Cl
ATOM     35  C   UNL     1      18.420   2.619  51.592  0.00  0.00    +0.000 A 
BRANCH  32  36
ATOM     36  O   UNL     1      14.863   2.048  50.937  0.00  0.00    +0.000 OA
BRANCH  36  37
ATOM     37  C   UNL     1      14.053   1.314  51.856  0.00  0.00    +0.000 C 
BRANCH  37  38
ATOM     38  C   UNL     1      13.258   2.229  52.760  0.00  0.00    +0.000 A 
ATOM     39  C   UNL     1      13.092   3.593  52.472  0.00  0.00    +0.000 A 
ATOM     40  C   UNL     1      12.466   4.444  53.389  0.00  0.00    +0.000 A 
ATOM     41  C   UNL     1      12.006   3.945  54.605  0.00  0.00    +0.000 A 
ATOM     42  C   UNL     1      12.163   2.595  54.890  0.00  0.00    +0.000 A 
ATOM     43  F   UNL     1      11.732   2.112  56.063  0.00  0.00    +0.000 F 
ATOM     44  C   UNL     1      12.783   1.738  53.987  0.00  0.00    +0.000 A 
ENDBRANCH  37  38
ENDBRANCH  36  37
ENDBRANCH  32  36
ENDBRANCH  27  29
ENDBRANCH   7  27
BRANCH   1  45
ATOM     45  O   UNL     1      26.716   1.228  52.583  0.00  0.00    +0.000 OA
BRANCH  45  47
ATOM     46  C   UNL     1      28.523   2.465  53.543  0.00  0.00    +0.000 C 
ATOM     47  C   UNL     1      27.219   1.739  53.820  0.00  0.00    +0.000 C 
ENDBRANCH  45  47
ENDBRANCH   1  45
TORSDOF 11
ENDMDL
MODEL 8
REMARK VINA RESULT:    -8.422      2.963      6.304
REMARK INTER + INTRA:         -16.109
REMARK INTER:                 -13.604
REMARK INTRA:                  -2.506
REMARK UNBOUND:                -2.271
REMARK  Name = 
REMARK  13 active torsions:
REMARK  status: ('A' for Active; 'I' for Inactive)
REMARK    1  A    between atoms: C_1  and  C_2
REMARK    2  A    between atoms: C_2  and  O_3
REMARK    3  A    between atoms: O_3  and  C_4
REMARK    4  A    between atoms: C_10  and  N_11
REMARK    5  A    between atoms: N_11  and  C_12
REMARK    6  A    between atoms: C_15  and  O_16
REMARK    7  A    between atoms: O_16  and  C_17
REMARK    8  A    between atoms: C_17  and  C_18
REMARK    9  A    between atoms: C_30  and  N_31
REMARK   10  A    between atoms: C_32  and  C_34
REMARK   11  A    between atoms: C_35  and  C_36
REMARK   12  A    between atoms: C_36  and  N_37
REMARK   13  A    between atoms: N_40  and  C_41
REMARK                            x       y       z     vdW  Elec       q    Type
REMARK                         _______ _______ _______ _____ _____    ______ ____
ROOT
ATOM      1  C   UNL     1      20.285   1.827  52.307  0.00  0.00    +0.000 A 
ATOM      2  C   UNL     1      18.913   1.795  52.011  0.00  0.00    +0.000 A 
ATOM      3  C   UNL     1      18.367   2.529  50.958  0.00  0.00    +0.000 A 
ATOM      4  N   UNL     1      17.043   2.515  50.792  0.00  0.00    +0.000 NA
ATOM      5  C   UNL     1      16.559   3.285  49.810  0.00  0.00    +0.000 A 
ATOM      6  N   UNL     1      17.265   4.041  48.970  0.00  0.00    +0.000 NA
ATOM      7  C   UNL     1      18.601   4.030  49.115  0.00  0.00    +0.000 A 
ATOM      8  C   UNL     1      19.219   3.274  50.138  0.00  0.00    +0.000 A 
ATOM      9  C   UNL     1      20.610   3.251  50.397  0.00  0.00    +0.000 A 
ATOM     10  C   UNL     1      21.145   2.571  51.490  0.00  0.00    +0.000 A 
ENDROOT
BRANCH  10  11
ATOM     11  N   UNL     1      22.527   2.612  51.802  0.00  0.00    +0.000 N 
ATOM     12  C   UNL     1      23.205   3.672  52.367  0.00  0.00    +0.000 C 
ATOM     13  O   UNL     1      22.721   4.733  52.745  0.00  0.00    +0.000 OA
ATOM     14  H   UNL     1      23.053   1.806  51.596  0.00  0.00    +0.000 HD
BRANCH  12  15
ATOM     15  C   UNL     1      24.667   3.425  52.484  0.00  0.00    +0.000 C 
ATOM     16  C   UNL     1      25.291   2.663  51.569  0.00  0.00    +0.000 C 
BRANCH  16  17
ATOM     17  C   UNL     1      26.720   2.223  51.679  0.00  0.00    +0.000 C 
BRANCH  17  18
ATOM     18  N   UNL     1      26.953   1.249  52.744  0.00  0.00    +0.000 N 
ATOM     19  C   UNL     1      27.055  -0.135  52.242  0.00  0.00    +0.000 C 
ATOM     20  C   UNL     1      27.350  -1.133  53.386  0.00  0.00    +0.000 C 
ATOM     21  N   UNL     1      28.576  -0.839  54.156  0.00  0.00    +0.000 N 
ATOM     22  C   UNL     1      29.781  -1.130  53.384  0.00  0.00    +0.000 C 
ATOM     23  C   UNL     1      28.533   0.571  54.594  0.00  0.00    +0.000 C 
ATOM     24  C   UNL     1      28.190   1.593  53.481  0.00  0.00    +0.000 C 
ATOM     25  H   UNL     1      26.144   1.292  53.365  0.00  0.00    +0.000 HD
ATOM     26  H   UNL     1      28.612  -1.444  54.976  0.00  0.00    +0.000 HD
ENDBRANCH  17  18
ENDBRANCH  16  17
ENDBRANCH  12  15
ENDBRANCH  10  11
BRANCH   7  27
ATOM     27  N   UNL     1      19.404   4.914  48.346  0.00  0.00    +0.000 N 
ATOM     28  H   UNL     1      19.208   4.904  47.382  0.00  0.00    +0.000 HD
BRANCH  27  29
ATOM     29  C   UNL     1      20.434   5.802  48.721  0.00  0.00    +0.000 A 
ATOM     30  C   UNL     1      20.441   6.530  49.907  0.00  0.00    +0.000 A 
ATOM     31  C   UNL     1      21.489   7.407  50.207  0.00  0.00    +0.000 A 
ATOM     32  C   UNL     1      22.569   7.554  49.330  0.00  0.00    +0.000 A 
ATOM     33  C   UNL     1      22.549   6.855  48.119  0.00  0.00    +0.000 A 
ATOM     34 CL   UNL     1      23.818   7.028  46.956  0.00  0.00    +0.000 Cl
ATOM     35  C   UNL     1      21.498   5.981  47.824  0.00  0.00    +0.000 A 
BRANCH  32  36
ATOM     36  O   UNL     1      23.649   8.364  49.584  0.00  0.00    +0.000 OA
BRANCH  36  37
ATOM     37  C   UNL     1      24.596   7.843  50.518  0.00  0.00    +0.000 C 
BRANCH  37  38
ATOM     38  C   UNL     1      25.767   7.184  49.823  0.00  0.00    +0.000 A 
ATOM     39  C   UNL     1      26.761   7.935  49.176  0.00  0.00    +0.000 A 
ATOM     40  C   UNL     1      27.760   7.301  48.429  0.00  0.00    +0.000 A 
ATOM     41  C   UNL     1      27.773   5.913  48.316  0.00  0.00    +0.000 A 
ATOM     42  C   UNL     1      26.794   5.168  48.961  0.00  0.00    +0.000 A 
ATOM     43  F   UNL     1      26.797   3.833  48.846  0.00  0.00    +0.000 F 
ATOM     44  C   UNL     1      25.796   5.786  49.707  0.00  0.00    +0.000 A 
ENDBRANCH  37  38
ENDBRANCH  36  37
ENDBRANCH  32  36
ENDBRANCH  27  29
ENDBRANCH   7  27
BRANCH   1  45
ATOM     45  O   UNL     1      20.869   1.195  53.380  0.00  0.00    +0.000 OA
BRANCH  45  47
ATOM     46  C   UNL     1      22.192  -0.760  52.995  0.00  0.00    +0.000 C 
ATOM     47  C   UNL     1      20.823  -0.235  53.389  0.00  0.00    +0.000 C 
ENDBRANCH  45  47
ENDBRANCH   1  45
TORSDOF 11
ENDMDL
MODEL 9
REMARK VINA RESULT:    -8.401      2.346      3.378
REMARK INTER + INTRA:         -16.073
REMARK INTER:                 -13.965
REMARK INTRA:                  -2.108
REMARK UNBOUND:                -2.271
REMARK  Name = 
REMARK  13 active torsions:
REMARK  status: ('A' for Active; 'I' for Inactive)
REMARK    1  A    between atoms: C_1  and  C_2
REMARK    2  A    between atoms: C_2  and  O_3
REMARK    3  A    between atoms: O_3  and  C_4
REMARK    4  A    between atoms: C_10  and  N_11
REMARK    5  A    between atoms: N_11  and  C_12
REMARK    6  A    between atoms: C_15  and  O_16
REMARK    7  A    between atoms: O_16  and  C_17
REMARK    8  A    between atoms: C_17  and  C_18
REMARK    9  A    between atoms: C_30  and  N_31
REMARK   10  A    between atoms: C_32  and  C_34
REMARK   11  A    between atoms: C_35  and  C_36
REMARK   12  A    between atoms: C_36  and  N_37
REMARK   13  A    between atoms: N_40  and  C_41
REMARK                            x       y       z     vdW  Elec       q    Type
REMARK                         _______ _______ _______ _____ _____    ______ ____
ROOT
ATOM      1  C   UNL     1      25.723   1.161  52.454  0.00  0.00    +0.000 A 
ATOM      2  C   UNL     1      25.212   0.023  53.095  0.00  0.00    +0.000 A 
ATOM      3  C   UNL     1      23.870  -0.078  53.464  0.00  0.00    +0.000 A 
ATOM      4  N   UNL     1      23.477  -1.155  54.146  0.00  0.00    +0.000 NA
ATOM      5  C   UNL     1      22.196  -1.178  54.535  0.00  0.00    +0.000 A 
ATOM      6  N   UNL     1      21.274  -0.248  54.289  0.00  0.00    +0.000 NA
ATOM      7  C   UNL     1      21.661   0.821  53.573  0.00  0.00    +0.000 A 
ATOM      8  C   UNL     1      22.998   0.963  53.134  0.00  0.00    +0.000 A 
ATOM      9  C   UNL     1      23.502   2.080  52.428  0.00  0.00    +0.000 A 
ATOM     10  C   UNL     1      24.855   2.209  52.120  0.00  0.00    +0.000 A 
ENDROOT
BRANCH  10  11
ATOM     11  N   UNL     1      25.380   3.362  51.487  0.00  0.00    +0.000 N 
ATOM     12  C   UNL     1      25.209   3.717  50.165  0.00  0.00    +0.000 C 
ATOM     13  O   UNL     1      24.531   3.128  49.330  0.00  0.00    +0.000 OA
ATOM     14  H   UNL     1      25.919   3.968  52.044  0.00  0.00    +0.000 HD
BRANCH  12  15
ATOM     15  C   UNL     1      25.965   4.943  49.794  0.00  0.00    +0.000 C 
ATOM     16  C   UNL     1      25.336   6.131  49.754  0.00  0.00    +0.000 C 
BRANCH  16  17
ATOM     17  C   UNL     1      25.961   7.393  49.244  0.00  0.00    +0.000 C 
BRANCH  17  18
ATOM     18  N   UNL     1      27.422   7.391  49.307  0.00  0.00    +0.000 N 
ATOM     19  C   UNL     1      28.043   6.691  48.166  0.00  0.00    +0.000 C 
ATOM     20  C   UNL     1      29.587   6.750  48.238  0.00  0.00    +0.000 C 
ATOM     21  N   UNL     1      30.148   8.116  48.292  0.00  0.00    +0.000 N 
ATOM     22  C   UNL     1      30.028   8.799  47.007  0.00  0.00    +0.000 C 
ATOM     23  C   UNL     1      29.473   8.862  49.374  0.00  0.00    +0.000 C 
ATOM     24  C   UNL     1      27.927   8.782  49.360  0.00  0.00    +0.000 C 
ATOM     25  H   UNL     1      27.679   6.885  50.155  0.00  0.00    +0.000 HD
ATOM     26  H   UNL     1      31.146   8.063  48.492  0.00  0.00    +0.000 HD
ENDBRANCH  17  18
ENDBRANCH  16  17
ENDBRANCH  12  15
ENDBRANCH  10  11
BRANCH   7  27
ATOM     27  N   UNL     1      20.769   1.912  53.390  0.00  0.00    +0.000 N 
ATOM     28  H   UNL     1      20.678   2.497  54.176  0.00  0.00    +0.000 HD
BRANCH  27  29
ATOM     29  C   UNL     1      19.990   2.304  52.282  0.00  0.00    +0.000 A 
ATOM     30  C   UNL     1      19.086   1.468  51.632  0.00  0.00    +0.000 A 
ATOM     31  C   UNL     1      18.357   1.919  50.525  0.00  0.00    +0.000 A 
ATOM     32  C   UNL     1      18.502   3.231  50.062  0.00  0.00    +0.000 A 
ATOM     33  C   UNL     1      19.436   4.064  50.688  0.00  0.00    +0.000 A 
ATOM     34 CL   UNL     1      19.716   5.679  50.137  0.00  0.00    +0.000 Cl
ATOM     35  C   UNL     1      20.163   3.607  51.792  0.00  0.00    +0.000 A 
BRANCH  32  36
ATOM     36  O   UNL     1      17.786   3.749  49.011  0.00  0.00    +0.000 OA
BRANCH  36  37
ATOM     37  C   UNL     1      18.092   3.192  47.731  0.00  0.00    +0.000 C 
BRANCH  37  38
ATOM     38  C   UNL     1      19.489   3.553  47.281  0.00  0.00    +0.000 A 
ATOM     39  C   UNL     1      19.755   4.728  46.561  0.00  0.00    +0.000 A 
ATOM     40  C   UNL     1      21.031   4.973  46.042  0.00  0.00    +0.000 A 
ATOM     41  C   UNL     1      22.052   4.045  46.231  0.00  0.00    +0.000 A 
ATOM     42  C   UNL     1      21.794   2.885  46.949  0.00  0.00    +0.000 A 
ATOM     43  F   UNL     1      22.771   1.985  47.124  0.00  0.00    +0.000 F 
ATOM     44  C   UNL     1      20.530   2.630  47.471  0.00  0.00    +0.000 A 
ENDBRANCH  37  38
ENDBRANCH  36  37
ENDBRANCH  32  36
ENDBRANCH  27  29
ENDBRANCH   7  27
BRANCH   1  45
ATOM     45  O   UNL     1      27.049   1.354  52.142  0.00  0.00    +0.000 OA
BRANCH  45  47
ATOM     46  C   UNL     1      28.605   2.459  53.584  0.00  0.00    +0.000 C 
ATOM     47  C   UNL     1      27.998   1.125  53.186  0.00  0.00    +0.000 C 
ENDBRANCH  45  47
ENDBRANCH   1  45
TORSDOF 11
ENDMDL
