MODEL 1
REMARK VINA RESULT:    -8.685      0.000      0.000
REMARK INTER + INTRA:          -9.838
REMARK INTER:                  -9.700
REMARK INTRA:                  -0.138
REMARK UNBOUND:                -0.138
REMARK  Name = 
REMARK  2 active torsions:
REMARK  status: ('A' for Active; 'I' for Inactive)
REMARK    1  A    between atoms: C_5  and  O_6
REMARK    2  A    between atoms: O_6  and  C_7
REMARK                            x       y       z     vdW  Elec       q    Type
REMARK                         _______ _______ _______ _____ _____    ______ ____
ROOT
ATOM      1  C   UNL     1      23.599  -0.244  53.472  0.00  0.00    +0.000 A 
ATOM      2  N   UNL     1      23.989  -0.827  54.625  0.00  0.00    +0.000 NA
ATOM      3  C   UNL     1      23.018  -1.396  55.339  0.00  0.00    +0.000 A 
ATOM      4  N   UNL     1      21.716  -1.413  55.028  0.00  0.00    +0.000 NA
ATOM      5  C   UNL     1      21.352  -0.793  53.898  0.00  0.00    +0.000 A 
ATOM      6  C   UNL     1      20.006  -0.767  53.555  0.00  0.00    +0.000 A 
ATOM      7  C   UNL     1      19.550  -0.134  52.397  0.00  0.00    +0.000 A 
ATOM      8  C   UNL     1      20.459   0.484  51.545  0.00  0.00    +0.000 A 
ATOM      9  C   UNL     1      21.816   0.468  51.863  0.00  0.00    +0.000 A 
ATOM     10  C   UNL     1      22.269  -0.168  53.046  0.00  0.00    +0.000 A 
ENDROOT
BRANCH   1  11
ATOM     11  O   UNL     1      24.569   0.352  52.664  0.00  0.00    +0.000 OA
BRANCH  11  16
ATOM     12  F   UNL     1      29.886  -0.545  53.766  0.00  0.00    +0.000 F 
ATOM     13  C   UNL     1      28.594  -0.322  53.484  0.00  0.00    +0.000 A 
ATOM     14  C   UNL     1      27.814  -1.390  53.051  0.00  0.00    +0.000 A 
ATOM     15  C   UNL     1      26.468  -1.182  52.754  0.00  0.00    +0.000 A 
ATOM     16  C   UNL     1      25.894   0.084  52.934  0.00  0.00    +0.000 A 
ATOM     17  C   UNL     1      26.691   1.161  53.337  0.00  0.00    +0.000 A 
ATOM     18  C   UNL     1      28.044   0.952  53.614  0.00  0.00    +0.000 A 
ATOM     19 CL   UNL     1      29.021   2.279  54.112  0.00  0.00    +0.000 Cl
ENDBRANCH  11  16
ENDBRANCH   1  11
TORSDOF 2
ENDMDL
MODEL 2
REMARK VINA RESULT:    -8.308      2.637      3.586
REMARK INTER + INTRA:          -9.418
REMARK INTER:                  -8.889
REMARK INTRA:                  -0.529
REMARK UNBOUND:                -0.138
REMARK  Name = 
REMARK  2 active torsions:
REMARK  status: ('A' for Active; 'I' for Inactive)
REMARK    1  A    between atoms: C_5  and  O_6
REMARK    2  A    between atoms: O_6  and  C_7
REMARK                            x       y       z     vdW  Elec       q    Type
REMARK                         _______ _______ _______ _____ _____    ______ ____
ROOT
ATOM      1  C   UNL     1      25.101   2.041  52.580  0.00  0.00    +0.000 A 
ATOM      2  N   UNL     1      25.723   2.959  51.811  0.00  0.00    +0.000 NA
ATOM      3  C   UNL     1      25.085   3.298  50.690  0.00  0.00    +0.000 A 
ATOM      4  N   UNL     1      23.921   2.793  50.261  0.00  0.00    +0.000 NA
ATOM      5  C   UNL     1      23.346   1.855  51.024  0.00  0.00    +0.000 A 
ATOM      6  C   UNL     1      22.150   1.291  50.599  0.00  0.00    +0.000 A 
ATOM      7  C   UNL     1      21.495   0.303  51.337  0.00  0.00    +0.000 A 
ATOM      8  C   UNL     1      22.038  -0.132  52.542  0.00  0.00    +0.000 A 
ATOM      9  C   UNL     1      23.234   0.422  52.994  0.00  0.00    +0.000 A 
ATOM     10  C   UNL     1      23.897   1.418  52.233  0.00  0.00    +0.000 A 
ENDROOT
BRANCH   1  11
ATOM     11  O   UNL     1      25.702   1.657  53.780  0.00  0.00    +0.000 OA
BRANCH  11  16
ATOM     12  F   UNL     1      30.461  -1.095  53.503  0.00  0.00    +0.000 F 
ATOM     13  C   UNL     1      29.299  -0.429  53.584  0.00  0.00    +0.000 A 
ATOM     14  C   UNL     1      29.322   0.902  53.989  0.00  0.00    +0.000 A 
ATOM     15  C   UNL     1      28.126   1.613  54.079  0.00  0.00    +0.000 A 
ATOM     16  C   UNL     1      26.916   1.006  53.719  0.00  0.00    +0.000 A 
ATOM     17  C   UNL     1      26.895  -0.342  53.345  0.00  0.00    +0.000 A 
ATOM     18  C   UNL     1      28.093  -1.057  53.276  0.00  0.00    +0.000 A 
ATOM     19 CL   UNL     1      28.064  -2.715  52.812  0.00  0.00    +0.000 Cl
ENDBRANCH  11  16
ENDBRANCH   1  11
TORSDOF 2
ENDMDL
MODEL 3
REMARK VINA RESULT:    -8.304      3.531      6.523
REMARK INTER + INTRA:          -9.413
REMARK INTER:                  -8.950
REMARK INTRA:                  -0.463
REMARK UNBOUND:                -0.138
REMARK  Name = 
REMARK  2 active torsions:
REMARK  status: ('A' for Active; 'I' for Inactive)
REMARK    1  A    between atoms: C_5  and  O_6
REMARK    2  A    between atoms: O_6  and  C_7
REMARK                            x       y       z     vdW  Elec       q    Type
REMARK                         _______ _______ _______ _____ _____    ______ ____
ROOT
ATOM      1  C   UNL     1      26.574   0.983  52.633  0.00  0.00    +0.000 A 
ATOM      2  N   UNL     1      26.706   2.246  53.090  0.00  0.00    +0.000 NA
ATOM      3  C   UNL     1      27.822   2.495  53.775  0.00  0.00    +0.000 A 
ATOM      4  N   UNL     1      28.785   1.611  54.064  0.00  0.00    +0.000 NA
ATOM      5  C   UNL     1      28.609   0.356  53.632  0.00  0.00    +0.000 A 
ATOM      6  C   UNL     1      29.575  -0.596  53.934  0.00  0.00    +0.000 A 
ATOM      7  C   UNL     1      29.457  -1.925  53.523  0.00  0.00    +0.000 A 
ATOM      8  C   UNL     1      28.351  -2.322  52.780  0.00  0.00    +0.000 A 
ATOM      9  C   UNL     1      27.370  -1.386  52.458  0.00  0.00    +0.000 A 
ATOM     10  C   UNL     1      27.492  -0.040  52.888  0.00  0.00    +0.000 A 
ENDROOT
BRANCH   1  11
ATOM     11  O   UNL     1      25.439   0.659  51.888  0.00  0.00    +0.000 OA
BRANCH  11  16
ATOM     12  F   UNL     1      20.640   0.359  54.567  0.00  0.00    +0.000 F 
ATOM     13  C   UNL     1      21.805   0.422  53.905  0.00  0.00    +0.000 A 
ATOM     14  C   UNL     1      21.955   1.385  52.912  0.00  0.00    +0.000 A 
ATOM     15  C   UNL     1      23.157   1.469  52.211  0.00  0.00    +0.000 A 
ATOM     16  C   UNL     1      24.223   0.621  52.538  0.00  0.00    +0.000 A 
ATOM     17  C   UNL     1      24.056  -0.367  53.514  0.00  0.00    +0.000 A 
ATOM     18  C   UNL     1      22.843  -0.462  54.198  0.00  0.00    +0.000 A 
ATOM     19 CL   UNL     1      22.641  -1.677  55.402  0.00  0.00    +0.000 Cl
ENDBRANCH  11  16
ENDBRANCH   1  11
TORSDOF 2
ENDMDL
MODEL 4
REMARK VINA RESULT:    -8.302      4.711      6.512
REMARK INTER + INTRA:          -9.410
REMARK INTER:                  -8.963
REMARK INTRA:                  -0.447
REMARK UNBOUND:                -0.138
REMARK  Name = 
REMARK  2 active torsions:
REMARK  status: ('A' for Active; 'I' for Inactive)
REMARK    1  A    between atoms: C_5  and  O_6
REMARK    2  A    between atoms: O_6  and  C_7
REMARK                            x       y       z     vdW  Elec       q    Type
REMARK                         _______ _______ _______ _____ _____    ______ ____
ROOT
ATOM      1  C   UNL     1      27.054   1.392  53.363  0.00  0.00    +0.000 A 
ATOM      2  N   UNL     1      27.763   2.413  53.888  0.00  0.00    +0.000 NA
ATOM      3  C   UNL     1      29.016   2.122  54.238  0.00  0.00    +0.000 A 
ATOM      4  N   UNL     1      29.605   0.924  54.140  0.00  0.00    +0.000 NA
ATOM      5  C   UNL     1      28.865  -0.080  53.652  0.00  0.00    +0.000 A 
ATOM      6  C   UNL     1      29.434  -1.344  53.558  0.00  0.00    +0.000 A 
ATOM      7  C   UNL     1      28.723  -2.441  53.066  0.00  0.00    +0.000 A 
ATOM      8  C   UNL     1      27.409  -2.277  52.643  0.00  0.00    +0.000 A 
ATOM      9  C   UNL     1      26.815  -1.018  52.721  0.00  0.00    +0.000 A 
ATOM     10  C   UNL     1      27.541   0.088  53.231  0.00  0.00    +0.000 A 
ENDROOT
BRANCH   1  11
ATOM     11  O   UNL     1      25.740   1.632  52.954  0.00  0.00    +0.000 OA
BRANCH  11  16
ATOM     12  F   UNL     1      24.763   5.236  48.910  0.00  0.00    +0.000 F 
ATOM     13  C   UNL     1      24.992   4.349  49.889  0.00  0.00    +0.000 A 
ATOM     14  C   UNL     1      26.083   3.493  49.771  0.00  0.00    +0.000 A 
ATOM     15  C   UNL     1      26.341   2.564  50.777  0.00  0.00    +0.000 A 
ATOM     16  C   UNL     1      25.534   2.523  51.922  0.00  0.00    +0.000 A 
ATOM     17  C   UNL     1      24.419   3.362  52.021  0.00  0.00    +0.000 A 
ATOM     18  C   UNL     1      24.153   4.277  51.000  0.00  0.00    +0.000 A 
ATOM     19 CL   UNL     1      22.781   5.311  51.126  0.00  0.00    +0.000 Cl
ENDBRANCH  11  16
ENDBRANCH   1  11
TORSDOF 2
ENDMDL
MODEL 5
REMARK VINA RESULT:    -7.993      3.508      6.467
REMARK INTER + INTRA:          -9.066
REMARK INTER:                  -8.891
REMARK INTRA:                  -0.175
REMARK UNBOUND:                -0.138
REMARK  Name = 
REMARK  2 active torsions:
REMARK  status: ('A' for Active; 'I' for Inactive)
REMARK    1  A    between atoms: C_5  and  O_6
REMARK    2  A    between atoms: O_6  and  C_7
REMARK                            x       y       z     vdW  Elec       q    Type
REMARK                         _______ _______ _______ _____ _____    ______ ____
ROOT
ATOM      1  C   UNL     1      26.276  -0.211  52.474  0.00  0.00    +0.000 A 
ATOM      2  N   UNL     1      26.260  -1.547  52.284  0.00  0.00    +0.000 NA
ATOM      3  C   UNL     1      27.330  -2.204  52.731  0.00  0.00    +0.000 A 
ATOM      4  N   UNL     1      28.405  -1.657  53.313  0.00  0.00    +0.000 NA
ATOM      5  C   UNL     1      28.411  -0.326  53.452  0.00  0.00    +0.000 A 
ATOM      6  C   UNL     1      29.520   0.280  54.029  0.00  0.00    +0.000 A 
ATOM      7  C   UNL     1      29.602   1.663  54.202  0.00  0.00    +0.000 A 
ATOM      8  C   UNL     1      28.544   2.472  53.800  0.00  0.00    +0.000 A 
ATOM      9  C   UNL     1      27.417   1.890  53.224  0.00  0.00    +0.000 A 
ATOM     10  C   UNL     1      27.347   0.485  53.043  0.00  0.00    +0.000 A 
ENDROOT
BRANCH   1  11
ATOM     11  O   UNL     1      25.175   0.537  52.049  0.00  0.00    +0.000 OA
BRANCH  11  16
ATOM     12  F   UNL     1      20.381   0.125  54.721  0.00  0.00    +0.000 F 
ATOM     13  C   UNL     1      21.553   0.236  54.079  0.00  0.00    +0.000 A 
ATOM     14  C   UNL     1      22.601  -0.597  54.458  0.00  0.00    +0.000 A 
ATOM     15  C   UNL     1      23.828  -0.500  53.803  0.00  0.00    +0.000 A 
ATOM     16  C   UNL     1      23.990   0.398  52.740  0.00  0.00    +0.000 A 
ATOM     17  C   UNL     1      22.945   1.257  52.386  0.00  0.00    +0.000 A 
ATOM     18  C   UNL     1      21.724   1.171  53.058  0.00  0.00    +0.000 A 
ATOM     19 CL   UNL     1      20.437   2.227  52.617  0.00  0.00    +0.000 Cl
ENDBRANCH  11  16
ENDBRANCH   1  11
TORSDOF 2
ENDMDL
MODEL 6
REMARK VINA RESULT:    -7.991      2.125      2.993
REMARK INTER + INTRA:          -9.064
REMARK INTER:                  -8.772
REMARK INTRA:                  -0.292
REMARK UNBOUND:                -0.138
REMARK  Name = 
REMARK  2 active torsions:
REMARK  status: ('A' for Active; 'I' for Inactive)
REMARK    1  A    between atoms: C_5  and  O_6
REMARK    2  A    between atoms: O_6  and  C_7
REMARK                            x       y       z     vdW  Elec       q    Type
REMARK                         _______ _______ _______ _____ _____    ______ ____
ROOT
ATOM      1  C   UNL     1      24.217   0.910  52.094  0.00  0.00    +0.000 A 
ATOM      2  N   UNL     1      24.018   1.994  51.316  0.00  0.00    +0.000 NA
ATOM      3  C   UNL     1      22.866   2.637  51.509  0.00  0.00    +0.000 A 
ATOM      4  N   UNL     1      21.902   2.288  52.371  0.00  0.00    +0.000 NA
ATOM      5  C   UNL     1      22.110   1.186  53.103  0.00  0.00    +0.000 A 
ATOM      6  C   UNL     1      21.122   0.779  53.990  0.00  0.00    +0.000 A 
ATOM      7  C   UNL     1      21.264  -0.363  54.782  0.00  0.00    +0.000 A 
ATOM      8  C   UNL     1      22.428  -1.120  54.699  0.00  0.00    +0.000 A 
ATOM      9  C   UNL     1      23.437  -0.730  53.820  0.00  0.00    +0.000 A 
ATOM     10  C   UNL     1      23.280   0.425  53.013  0.00  0.00    +0.000 A 
ENDROOT
BRANCH   1  11
ATOM     11  O   UNL     1      25.413   0.203  51.960  0.00  0.00    +0.000 OA
BRANCH  11  16
ATOM     12  F   UNL     1      29.895   1.868  54.686  0.00  0.00    +0.000 F 
ATOM     13  C   UNL     1      28.797   1.457  54.034  0.00  0.00    +0.000 A 
ATOM     14  C   UNL     1      27.772   2.372  53.815  0.00  0.00    +0.000 A 
ATOM     15  C   UNL     1      26.622   1.968  53.138  0.00  0.00    +0.000 A 
ATOM     16  C   UNL     1      26.520   0.661  52.641  0.00  0.00    +0.000 A 
ATOM     17  C   UNL     1      27.538  -0.263  52.894  0.00  0.00    +0.000 A 
ATOM     18  C   UNL     1      28.679   0.141  53.590  0.00  0.00    +0.000 A 
ATOM     19 CL   UNL     1      29.933  -0.999  53.896  0.00  0.00    +0.000 Cl
ENDBRANCH  11  16
ENDBRANCH   1  11
TORSDOF 2
ENDMDL
MODEL 7
REMARK VINA RESULT:    -7.818      1.915      2.554
REMARK INTER + INTRA:          -8.871
REMARK INTER:                  -8.423
REMARK INTRA:                  -0.448
REMARK UNBOUND:                -0.138
REMARK  Name = 
REMARK  2 active torsions:
REMARK  status: ('A' for Active; 'I' for Inactive)
REMARK    1  A    between atoms: C_5  and  O_6
REMARK    2  A    between atoms: O_6  and  C_7
REMARK                            x       y       z     vdW  Elec       q    Type
REMARK                         _______ _______ _______ _____ _____    ______ ____
ROOT
ATOM      1  C   UNL     1      23.485   1.511  52.437  0.00  0.00    +0.000 A 
ATOM      2  N   UNL     1      23.880   2.000  51.242  0.00  0.00    +0.000 NA
ATOM      3  C   UNL     1      22.980   1.916  50.262  0.00  0.00    +0.000 A 
ATOM      4  N   UNL     1      21.759   1.375  50.355  0.00  0.00    +0.000 NA
ATOM      5  C   UNL     1      21.409   0.862  51.542  0.00  0.00    +0.000 A 
ATOM      6  C   UNL     1      20.160   0.270  51.670  0.00  0.00    +0.000 A 
ATOM      7  C   UNL     1      19.728  -0.292  52.874  0.00  0.00    +0.000 A 
ATOM      8  C   UNL     1      20.558  -0.255  53.989  0.00  0.00    +0.000 A 
ATOM      9  C   UNL     1      21.815   0.338  53.889  0.00  0.00    +0.000 A 
ATOM     10  C   UNL     1      22.249   0.897  52.660  0.00  0.00    +0.000 A 
ENDROOT
BRANCH   1  11
ATOM     11  O   UNL     1      24.371   1.588  53.514  0.00  0.00    +0.000 OA
BRANCH  11  16
ATOM     12  F   UNL     1      29.088  -1.243  53.333  0.00  0.00    +0.000 F 
ATOM     13  C   UNL     1      27.941  -0.547  53.364  0.00  0.00    +0.000 A 
ATOM     14  C   UNL     1      26.776  -1.164  52.918  0.00  0.00    +0.000 A 
ATOM     15  C   UNL     1      25.573  -0.461  52.943  0.00  0.00    +0.000 A 
ATOM     16  C   UNL     1      25.529   0.842  53.456  0.00  0.00    +0.000 A 
ATOM     17  C   UNL     1      26.709   1.469  53.871  0.00  0.00    +0.000 A 
ATOM     18  C   UNL     1      27.915   0.768  53.825  0.00  0.00    +0.000 A 
ATOM     19 CL   UNL     1      29.365   1.542  54.340  0.00  0.00    +0.000 Cl
ENDBRANCH  11  16
ENDBRANCH   1  11
TORSDOF 2
ENDMDL
MODEL 8
REMARK VINA RESULT:    -7.813      2.881      3.804
REMARK INTER + INTRA:          -8.865
REMARK INTER:                  -8.422
REMARK INTRA:                  -0.443
REMARK UNBOUND:                -0.138
REMARK  Name = 
REMARK  2 active torsions:
REMARK  status: ('A' for Active; 'I' for Inactive)
REMARK    1  A    between atoms: C_5  and  O_6
REMARK    2  A    between atoms: O_6  and  C_7
REMARK                            x       y       z     vdW  Elec       q    Type
REMARK                         _______ _______ _______ _____ _____    ______ ____
ROOT
ATOM      1  C   UNL     1      24.378   2.605  51.818  0.00  0.00    +0.000 A 
ATOM      2  N   UNL     1      25.210   3.601  51.447  0.00  0.00    +0.000 NA
ATOM      3  C   UNL     1      24.959   4.146  50.257  0.00  0.00    +0.000 A 
ATOM      4  N   UNL     1      23.991   3.777  49.408  0.00  0.00    +0.000 NA
ATOM      5  C   UNL     1      23.206   2.760  49.785  0.00  0.00    +0.000 A 
ATOM      6  C   UNL     1      22.207   2.333  48.920  0.00  0.00    +0.000 A 
ATOM      7  C   UNL     1      21.354   1.275  49.241  0.00  0.00    +0.000 A 
ATOM      8  C   UNL     1      21.488   0.627  50.464  0.00  0.00    +0.000 A 
ATOM      9  C   UNL     1      22.479   1.039  51.352  0.00  0.00    +0.000 A 
ATOM     10  C   UNL     1      23.348   2.108  51.015  0.00  0.00    +0.000 A 
ENDROOT
BRANCH   1  11
ATOM     11  O   UNL     1      24.571   2.005  53.064  0.00  0.00    +0.000 OA
BRANCH  11  16
ATOM     12  F   UNL     1      28.965  -1.243  53.724  0.00  0.00    +0.000 F 
ATOM     13  C   UNL     1      27.899  -0.447  53.550  0.00  0.00    +0.000 A 
ATOM     14  C   UNL     1      26.743  -0.993  53.001  0.00  0.00    +0.000 A 
ATOM     15  C   UNL     1      25.623  -0.185  52.812  0.00  0.00    +0.000 A 
ATOM     16  C   UNL     1      25.647   1.156  53.217  0.00  0.00    +0.000 A 
ATOM     17  C   UNL     1      26.821   1.709  53.738  0.00  0.00    +0.000 A 
ATOM     18  C   UNL     1      27.948   0.900  53.905  0.00  0.00    +0.000 A 
ATOM     19 CL   UNL     1      29.392   1.583  54.550  0.00  0.00    +0.000 Cl
ENDBRANCH  11  16
ENDBRANCH   1  11
TORSDOF 2
ENDMDL
MODEL 9
REMARK VINA RESULT:    -7.662      4.014      4.974
REMARK INTER + INTRA:          -8.696
REMARK INTER:                  -8.163
REMARK INTRA:                  -0.533
REMARK UNBOUND:                -0.138
REMARK  Name = 
REMARK  2 active torsions:
REMARK  status: ('A' for Active; 'I' for Inactive)
REMARK    1  A    between atoms: C_5  and  O_6
REMARK    2  A    between atoms: O_6  and  C_7
REMARK                            x       y       z     vdW  Elec       q    Type
REMARK                         _______ _______ _______ _____ _____    ______ ____
ROOT
ATOM      1  C   UNL     1      24.011   0.943  51.998  0.00  0.00    +0.000 A 
ATOM      2  N   UNL     1      25.352   0.833  52.108  0.00  0.00    +0.000 NA
ATOM      3  C   UNL     1      25.785   0.034  53.083  0.00  0.00    +0.000 A 
ATOM      4  N   UNL     1      25.020  -0.630  53.958  0.00  0.00    +0.000 NA
ATOM      5  C   UNL     1      23.695  -0.472  53.851  0.00  0.00    +0.000 A 
ATOM      6  C   UNL     1      22.869  -1.125  54.757  0.00  0.00    +0.000 A 
ATOM      7  C   UNL     1      21.478  -1.003  54.711  0.00  0.00    +0.000 A 
ATOM      8  C   UNL     1      20.887  -0.216  53.729  0.00  0.00    +0.000 A 
ATOM      9  C   UNL     1      21.692   0.446  52.804  0.00  0.00    +0.000 A 
ATOM     10  C   UNL     1      23.103   0.324  52.864  0.00  0.00    +0.000 A 
ENDROOT
BRANCH   1  11
ATOM     11  O   UNL     1      23.489   1.746  50.983  0.00  0.00    +0.000 OA
BRANCH  11  16
ATOM     12  F   UNL     1      24.445   7.164  51.144  0.00  0.00    +0.000 F 
ATOM     13  C   UNL     1      24.225   5.842  51.111  0.00  0.00    +0.000 A 
ATOM     14  C   UNL     1      23.459   5.270  52.123  0.00  0.00    +0.000 A 
ATOM     15  C   UNL     1      23.215   3.897  52.108  0.00  0.00    +0.000 A 
ATOM     16  C   UNL     1      23.700   3.107  51.058  0.00  0.00    +0.000 A 
ATOM     17  C   UNL     1      24.497   3.681  50.062  0.00  0.00    +0.000 A 
ATOM     18  C   UNL     1      24.756   5.053  50.092  0.00  0.00    +0.000 A 
ATOM     19 CL   UNL     1      25.736   5.757  48.863  0.00  0.00    +0.000 Cl
ENDBRANCH  11  16
ENDBRANCH   1  11
TORSDOF 2
ENDMDL
